pydss-projects/GSO_Rural_Medium_sol_rhs0_rdt1528/DSSfiles/Lines.dss
New Line.l(r:p1rlv1359-rdt793lv) Units=km Length=0.001 bus1=rdt793lv.1.2 bus2=p1rlv1359.1.2 switch=n enabled=y phases=2 Linecode=1P_OH_AL_4_Periwinkle_2

New Line.l(r:p1rlv1360-rdt794lv) Units=km Length=0.0555307 bus1=rdt794lv.1.2 bus2=p1rlv1360.1.2 switch=n enabled=y phases=2 Linecode=1P_OH_AL_4/0_Zuzara_2

New Line.l(r:p1rlv1361-rdt794lv) Units=km Length=0.0116259 bus1=rdt794lv.1.2 bus2=p1rlv1361.1.2 switch=n enabled=y phases=2 Linecode=1P_OH_AL_2/0_Rucina_2

New Line.l(r:p1rlv1362-rdt794lv) Units=km Length=0.0573582 bus1=rdt794lv.1.2 bus2=p1rlv1362.1.2 switch=n enabled=y phases=2 Linecode=1P_OH_AL_4/0_Zuzara_2

New Line.l(r:p1rlv1363-rdt794lv) Units=km Length=0.0310381 bus1=rdt794lv.1.2 bus2=p1rlv1363.1.2 switch=n enabled=y phases=2 Linecode=1P_OH_AL_4/0_Zuzara_2

New Line.l(r:p1rlv1364-rdt794lv) Units=km Length=0.0300463 bus1=rdt794lv.1.2 bus2=p1rlv1364.1.2 switch=n enabled=y phases=2 Linecode=1P_OH_AL_4/0_Zuzara_2

New Line.l(r:p1rlv1365-rdt795lv) Units=km Length=0.0638579 bus1=rdt795lv.1.2 bus2=p1rlv1365.1.2 switch=n enabled=y phases=2 Linecode=1P_OH_AL_4/0_Zuzara_2

New Line.l(r:p1rlv1367-rdt797lv) Units=km Length=0.0944191 bus1=rdt797lv.1.2 bus2=p1rlv1367.1.2 switch=n enabled=y phases=2 Linecode=1P_OH_AL_4/0_Zuzara_2

New Line.l(r:p1rlv1904-rdt798lv) Units=km Length=0.0400051 bus1=rdt798lv.1.2 bus2=p1rlv1904.1.2 switch=n enabled=y phases=2 Linecode=1P_OH_AL_4/0_Zuzara_2

New Line.l(r:p1rlv1368-rdm1368) Units=km Length=0.0998495 bus1=rdm1368.1.2 bus2=p1rlv1368.1.2 switch=n enabled=y phases=2 Linecode=1P_OH_AL_4/0_Zuzara_2

New Line.l(r:p1rlv1905-rdm1368) Units=km Length=0.0741747 bus1=rdm1368.1.2 bus2=p1rlv1905.1.2 switch=n enabled=y phases=2 Linecode=1P_OH_AL_4/0_Zuzara_2

New Line.l(r:rdm1368-rdt798lv) Units=km Length=0.0136689 bus1=rdt798lv.1.2 bus2=rdm1368.1.2 switch=n enabled=y phases=2 Linecode=1P_OH_AL_2/0_Rucina_2

New Line.l(r:p1rlv1906-rdm1371) Units=km Length=0.0839823 bus1=rdm1371.1.2 bus2=p1rlv1906.1.2 switch=n enabled=y phases=2 Linecode=1P_OH_AL_4/0_Zuzara_2

New Line.l(r:rdm1371-rdt798lv) Units=km Length=0.0182684 bus1=rdt798lv.1.2 bus2=rdm1371.1.2 switch=n enabled=y phases=2 Linecode=1P_OH_AL_2/0_Rucina_2

New Line.l(r:p1rlv1372-rdt800lv) Units=km Length=0.0386918 bus1=rdt800lv.1.2 bus2=p1rlv1372.1.2 switch=n enabled=y phases=2 Linecode=1P_UG_AL_4/0_Sweetbriar_2

New Line.l(r:p1rlv1863-rdt1110lv) Units=km Length=0.0918124 bus1=rdt1110lv.1.2 bus2=p1rlv1863.1.2 switch=n enabled=y phases=2 Linecode=1P_UG_AL_1/0_Brenau_2

New Line.l(r:p1rlv1862-rdm1866) Units=km Length=0.0412737 bus1=rdm1866.1.2 bus2=p1rlv1862.1.2 switch=n enabled=y phases=2 Linecode=1P_OH_AL_4/0_Zuzara_2

New Line.l(r:rdm1866-rdt1110lv) Units=km Length=0.0161444 bus1=rdt1110lv.1.2 bus2=rdm1866.1.2 switch=n enabled=y phases=2 Linecode=1P_OH_AL_2/0_Rucina_2

New Line.l(r:p1rlv1864-rdm1868) Units=km Length=0.0681341 bus1=rdm1868.1.2 bus2=p1rlv1864.1.2 switch=n enabled=y phases=2 Linecode=1P_OH_AL_4/0_Zuzara_2

New Line.l(r:rdm1868-rdt1110lv) Units=km Length=0.0277124 bus1=rdt1110lv.1.2 bus2=rdm1868.1.2 switch=n enabled=y phases=2 Linecode=1P_OH_AL_4/0_Zuzara_2

New Line.l(r:p1rlv1865-rdt1111lv) Units=km Length=0.0370739 bus1=rdt1111lv.1.2 bus2=p1rlv1865.1.2 switch=n enabled=y phases=2 Linecode=1P_OH_AL_4/0_Zuzara_2

New Line.l(r:p1rlv1868-rdt1114lv) Units=km Length=0.001 bus1=rdt1114lv.1.2 bus2=p1rlv1868.1.2 switch=n enabled=y phases=2 Linecode=1P_OH_AL_4_Periwinkle_2

New Line.l(r:p1rlv1869-rdt1115lv) Units=km Length=0.001 bus1=rdt1115lv.1.2 bus2=p1rlv1869.1.2 switch=n enabled=y phases=2 Linecode=1P_UG_AL_1/0_Brenau_2

New Line.l(r:p1rlv1870-rdm1874) Units=km Length=0.0441275 bus1=rdm1874.1.2 bus2=p1rlv1870.1.2 switch=n enabled=y phases=2 Linecode=1P_OH_AL_4/0_Zuzara_2

New Line.l(r:rdm1874-rdt1116lv) Units=km Length=0.0160778 bus1=rdt1116lv.1.2 bus2=rdm1874.1.2 switch=n enabled=y phases=2 Linecode=1P_OH_AL_2/0_Rucina_2

New Line.l(r:p1rlv1871-rdm1875) Units=km Length=0.0696996 bus1=rdm1875.1.2 bus2=p1rlv1871.1.2 switch=n enabled=y phases=2 Linecode=1P_OH_AL_4/0_Zuzara_2

New Line.l(r:rdm1875-rdt1116lv) Units=km Length=0.0160875 bus1=rdt1116lv.1.2 bus2=rdm1875.1.2 switch=n enabled=y phases=2 Linecode=1P_OH_AL_2/0_Rucina_2

New Line.l(r:p1rlv1872-rdm1876) Units=km Length=0.0947969 bus1=rdm1876.1.2 bus2=p1rlv1872.1.2 switch=n enabled=y phases=2 Linecode=1P_OH_AL_4/0_Zuzara_2

New Line.l(r:rdm1876-rdt1117lv) Units=km Length=0.0193076 bus1=rdt1117lv.1.2 bus2=rdm1876.1.2 switch=n enabled=y phases=2 Linecode=1P_OH_AL_2/0_Rucina_2

New Line.l(r:p1rlv1873-rdm1877) Units=km Length=0.0782976 bus1=rdm1877.1.2 bus2=p1rlv1873.1.2 switch=n enabled=y phases=2 Linecode=1P_OH_AL_4/0_Zuzara_2

New Line.l(r:rdm1877-rdt1117lv) Units=km Length=0.019316 bus1=rdt1117lv.1.2 bus2=rdm1877.1.2 switch=n enabled=y phases=2 Linecode=1P_OH_AL_2/0_Rucina_2

New Line.l(r:p1rlv1874-rdt1118lv) Units=km Length=0.0302837 bus1=rdt1118lv.1.2 bus2=p1rlv1874.1.2 switch=n enabled=y phases=2 Linecode=1P_OH_AL_4/0_Zuzara_2

New Line.l(r:p1rlv1875-rdt1119lv) Units=km Length=0.039782 bus1=rdt1119lv.1.2 bus2=p1rlv1875.1.2 switch=n enabled=y phases=2 Linecode=1P_OH_AL_4/0_Zuzara_2

New Line.l(r:p1rlv1876-rdt1119lv) Units=km Length=0.0628104 bus1=rdt1119lv.1.2 bus2=p1rlv1876.1.2 switch=n enabled=y phases=2 Linecode=1P_OH_AL_4/0_Zuzara_2

New Line.l(r:p1rlv1877-rdm1881) Units=km Length=0.0967 bus1=rdm1881.1.2 bus2=p1rlv1877.1.2 switch=n enabled=y phases=2 Linecode=1P_OH_AL_4/0_Zuzara_2

New Line.l(r:rdm1881-rdt1119lv) Units=km Length=0.019316 bus1=rdt1119lv.1.2 bus2=rdm1881.1.2 switch=n enabled=y phases=2 Linecode=1P_OH_AL_2/0_Rucina_2

New Line.l(r:p1rlv1878-rdt1120lv) Units=km Length=0.014846 bus1=rdt1120lv.1.2 bus2=p1rlv1878.1.2 switch=n enabled=y phases=2 Linecode=1P_OH_AL_2/0_Rucina_2

New Line.l(r:p1rlv1879-rdt1120lv) Units=km Length=0.001 bus1=rdt1120lv.1.2 bus2=p1rlv1879.1.2 switch=n enabled=y phases=2 Linecode=1P_OH_AL_4_Periwinkle_2

New Line.l(r:p1rlv1880-rdt1120lv) Units=km Length=0.014281 bus1=rdt1120lv.1.2 bus2=p1rlv1880.1.2 switch=n enabled=y phases=2 Linecode=1P_OH_AL_2/0_Rucina_2

New Line.l(r:p1rlv1881-rdt1121lv) Units=km Length=0.0243911 bus1=rdt1121lv.1.2 bus2=p1rlv1881.1.2 switch=n enabled=y phases=2 Linecode=1P_OH_AL_2/0_Rucina_2

New Line.l(r:p1rlv1882-rdt1121lv) Units=km Length=0.00389787 bus1=rdt1121lv.1.2 bus2=p1rlv1882.1.2 switch=n enabled=y phases=2 Linecode=1P_OH_AL_4_Periwinkle_2

New Line.l(r:p1rlv1883-rdt1121lv) Units=km Length=0.028201 bus1=rdt1121lv.1.2 bus2=p1rlv1883.1.2 switch=n enabled=y phases=2 Linecode=1P_OH_AL_4/0_Zuzara_2

New Line.l(r:p1rlv1888-rdt1124lv) Units=km Length=0.001 bus1=rdt1124lv.1.2 bus2=p1rlv1888.1.2 switch=n enabled=y phases=2 Linecode=1P_OH_AL_4_Periwinkle_2

New Line.l(r:p1rlv1889-rdt1125lv) Units=km Length=0.0314263 bus1=rdt1125lv.1.2 bus2=p1rlv1889.1.2 switch=n enabled=y phases=2 Linecode=1P_OH_AL_4/0_Zuzara_2

New Line.l(r:p1rlv1890-rdt1125lv) Units=km Length=0.00844213 bus1=rdt1125lv.1.2 bus2=p1rlv1890.1.2 switch=n enabled=y phases=2 Linecode=1P_OH_AL_2/0_Rucina_2

New Line.l(r:p1rlv1891-rdt1125lv) Units=km Length=0.023029 bus1=rdt1125lv.1.2 bus2=p1rlv1891.1.2 switch=n enabled=y phases=2 Linecode=1P_OH_AL_2/0_Rucina_2

New Line.l(r:p1rlv1892-rdt1126lv) Units=km Length=0.0171313 bus1=rdt1126lv.1.2 bus2=p1rlv1892.1.2 switch=n enabled=y phases=2 Linecode=1P_OH_AL_2/0_Rucina_2

New Line.l(r:p1rlv1893-rdt1127lv) Units=km Length=0.0470495 bus1=rdt1127lv.1.2 bus2=p1rlv1893.1.2 switch=n enabled=y phases=2 Linecode=1P_OH_AL_4/0_Zuzara_2

New Line.l(r:p1rlv1894-rdt1128lv) Units=km Length=0.0673578 bus1=rdt1128lv.1.2 bus2=p1rlv1894.1.2 switch=n enabled=y phases=2 Linecode=1P_OH_AL_4/0_Zuzara_2

New Line.l(r:p1rlv1895-rdt1129lv) Units=km Length=0.0112612 bus1=rdt1129lv.1.2 bus2=p1rlv1895.1.2 switch=n enabled=y phases=2 Linecode=1P_OH_AL_2/0_Rucina_2

New Line.l(r:p1rlv1896-rdt1130lv) Units=km Length=0.06946540000000001 bus1=rdt1130lv.1.2 bus2=p1rlv1896.1.2 switch=n enabled=y phases=2 Linecode=1P_OH_AL_4/0_Zuzara_2

New Line.l(r:p1rlv1897-rdt1131lv) Units=km Length=0.0336707 bus1=rdt1131lv.1.2 bus2=p1rlv1897.1.2 switch=n enabled=y phases=2 Linecode=1P_OH_AL_4/0_Zuzara_2

New Line.l(r:p1rlv1898-rdm1902) Units=km Length=0.0161159 bus1=rdm1902.1.2 bus2=p1rlv1898.1.2 switch=n enabled=y phases=2 Linecode=1P_OH_AL_2/0_Rucina_2

New Line.l(r:rdm1902-rdt1131lv) Units=km Length=0.0159021 bus1=rdt1131lv.1.2 bus2=rdm1902.1.2 switch=n enabled=y phases=2 Linecode=1P_OH_AL_2/0_Rucina_2

New Line.l(r:p1rlv1899-rdt1132lv) Units=km Length=0.0477475 bus1=rdt1132lv.1.2 bus2=p1rlv1899.1.2 switch=n enabled=y phases=2 Linecode=1P_OH_AL_4/0_Zuzara_2

New Line.l(r:p1rlv1900-rdt1133lv) Units=km Length=0.0043960200000000005 bus1=rdt1133lv.1.2 bus2=p1rlv1900.1.2 switch=n enabled=y phases=2 Linecode=1P_OH_AL_2/0_Rucina_2

New Line.l(r:p1rlv1901-rdt1134lv) Units=km Length=0.0421201 bus1=rdt1134lv.1.2 bus2=p1rlv1901.1.2 switch=n enabled=y phases=2 Linecode=1P_OH_AL_4/0_Zuzara_2

New Line.l(r:p1rlv1902-rdt1135lv) Units=km Length=0.0474181 bus1=rdt1135lv.1.2 bus2=p1rlv1902.1.2 switch=n enabled=y phases=2 Linecode=1P_OH_AL_4/0_Zuzara_2

New Line.l(r:p1rlv1903-rdt1136lv) Units=km Length=0.0197766 bus1=rdt1136lv.1.2 bus2=p1rlv1903.1.2 switch=n enabled=y phases=2 Linecode=1P_OH_AL_2/0_Rucina_2

New Line.l(r:p1rlv1907-rdt1137lv) Units=km Length=0.001 bus1=rdt1137lv.1.2 bus2=p1rlv1907.1.2 switch=n enabled=y phases=2 Linecode=1P_OH_AL_4_Periwinkle_2

New Line.l(r:p1rlv1908-rdt1138lv) Units=km Length=0.001 bus1=rdt1138lv.1.2 bus2=p1rlv1908.1.2 switch=n enabled=y phases=2 Linecode=1P_OH_AL_4_Periwinkle_2

New Line.l(r:p1rlv1912-rdm1911) Units=km Length=0.0212665 bus1=rdm1911.1.2 bus2=p1rlv1912.1.2 switch=n enabled=y phases=2 Linecode=1P_OH_AL_2/0_Rucina_2

New Line.l(r:p1rlv1909-rdm1910) Units=km Length=0.0329383 bus1=rdm1910.1.2 bus2=p1rlv1909.1.2 switch=n enabled=y phases=2 Linecode=1P_OH_AL_4/0_Zuzara_2

New Line.l(r:rdm1910-rdm1911) Units=km Length=0.0430685 bus1=rdm1911.1.2 bus2=rdm1910.1.2 switch=n enabled=y phases=2 Linecode=1P_OH_AL_4/0_Zuzara_2

New Line.l(r:rdm1911-rdt1139lv) Units=km Length=0.0154819 bus1=rdt1139lv.1.2 bus2=rdm1911.1.2 switch=n enabled=y phases=2 Linecode=1P_OH_AL_2/0_Rucina_2

New Line.l(r:p1rlv1913-rdm1912) Units=km Length=0.0188495 bus1=rdm1912.1.2 bus2=p1rlv1913.1.2 switch=n enabled=y phases=2 Linecode=1P_OH_AL_2/0_Rucina_2

New Line.l(r:p1rlv1914-rdm1913) Units=km Length=0.0043644 bus1=rdm1913.1.2 bus2=p1rlv1914.1.2 switch=n enabled=y phases=2 Linecode=1P_OH_AL_2/0_Rucina_2

New Line.l(r:rdm1912-rdm1913) Units=km Length=0.0476617 bus1=rdm1912.1.2 bus2=rdm1913.1.2 switch=n enabled=y phases=2 Linecode=1P_OH_AL_4/0_Zuzara_2

New Line.l(r:rdm1912-rdt1139lv) Units=km Length=0.0262989 bus1=rdt1139lv.1.2 bus2=rdm1912.1.2 switch=n enabled=y phases=2 Linecode=1P_OH_AL_2/0_Rucina_2

New Line.l(r:p1rlv1910-rdt1140lv) Units=km Length=0.012899600000000002 bus1=rdt1140lv.1.2 bus2=p1rlv1910.1.2 switch=n enabled=y phases=2 Linecode=1P_OH_AL_2/0_Rucina_2

New Line.l(r:p1rlv1911-rdt1140lv) Units=km Length=0.0235244 bus1=rdt1140lv.1.2 bus2=p1rlv1911.1.2 switch=n enabled=y phases=2 Linecode=1P_OH_AL_2/0_Rucina_2

New Line.l(r:p1rlv1916-rdt1141lv) Units=km Length=0.0623258 bus1=rdt1141lv.1.2 bus2=p1rlv1916.1.2 switch=n enabled=y phases=2 Linecode=1P_OH_AL_4/0_Zuzara_2

New Line.l(r:p1rlv1915-rdm1916) Units=km Length=0.0381318 bus1=rdm1916.1.2 bus2=p1rlv1915.1.2 switch=n enabled=y phases=2 Linecode=1P_UG_AL_1/0_Brenau_2

New Line.l(r:rdm1916-rdt1141lv) Units=km Length=0.0108759 bus1=rdt1141lv.1.2 bus2=rdm1916.1.2 switch=n enabled=y phases=2 Linecode=1P_OH_AL_2/0_Rucina_2

New Line.l(r:p1rlv1917-rdm1918) Units=km Length=0.100972 bus1=rdm1918.1.2 bus2=p1rlv1917.1.2 switch=n enabled=y phases=2 Linecode=1P_OH_AL_4/0_Zuzara_2

New Line.l(r:rdm1918-rdt1141lv) Units=km Length=0.0108885 bus1=rdt1141lv.1.2 bus2=rdm1918.1.2 switch=n enabled=y phases=2 Linecode=1P_OH_AL_2/0_Rucina_2

New Line.l(r:p1rlv1918-rdt1142lv) Units=km Length=0.0383289 bus1=rdt1142lv.1.2 bus2=p1rlv1918.1.2 switch=n enabled=y phases=2 Linecode=1P_OH_AL_4/0_Zuzara_2

New Line.l(r:p1rlv1921-rdt1143lv) Units=km Length=0.0854783 bus1=rdt1143lv.1.2 bus2=p1rlv1921.1.2 switch=n enabled=y phases=2 Linecode=1P_OH_AL_4/0_Zuzara_2

New Line.l(r:p1rlv1922-rdt1143lv) Units=km Length=0.05200960000000001 bus1=rdt1143lv.1.2 bus2=p1rlv1922.1.2 switch=n enabled=y phases=2 Linecode=1P_OH_AL_4/0_Zuzara_2

New Line.l(r:p1rlv1919-rdm1920) Units=km Length=0.0754892 bus1=rdm1920.1.2 bus2=p1rlv1919.1.2 switch=n enabled=y phases=2 Linecode=1P_OH_AL_4/0_Zuzara_2

New Line.l(r:p1rlv1920-rdm1920) Units=km Length=0.104674 bus1=rdm1920.1.2 bus2=p1rlv1920.1.2 switch=n enabled=y phases=2 Linecode=1P_OH_AL_4/0_Zuzara_2

New Line.l(r:rdm1920-rdt1143lv) Units=km Length=0.034073 bus1=rdt1143lv.1.2 bus2=rdm1920.1.2 switch=n enabled=y phases=2 Linecode=1P_OH_AL_4/0_Zuzara_2

New Line.l(r:p1rlv1923-rdm1924) Units=km Length=0.0831555 bus1=rdm1924.1.2 bus2=p1rlv1923.1.2 switch=n enabled=y phases=2 Linecode=1P_OH_AL_4/0_Zuzara_2

New Line.l(r:rdm1924-rdt1143lv) Units=km Length=0.0340865 bus1=rdt1143lv.1.2 bus2=rdm1924.1.2 switch=n enabled=y phases=2 Linecode=1P_OH_AL_4/0_Zuzara_2

New Line.l(r:p1rlv1924-rdt1144lv) Units=km Length=0.001 bus1=rdt1144lv.1.2 bus2=p1rlv1924.1.2 switch=n enabled=y phases=2 Linecode=1P_OH_AL_4_Periwinkle_2

New Line.l(r:p1rlv1925-rdt1145lv) Units=km Length=0.028217400000000004 bus1=rdt1145lv.1.2 bus2=p1rlv1925.1.2 switch=n enabled=y phases=2 Linecode=1P_OH_AL_4/0_Zuzara_2

New Line.l(r:p1rlv1926-rdt1145lv) Units=km Length=0.028217400000000004 bus1=rdt1145lv.1.2 bus2=p1rlv1926.1.2 switch=n enabled=y phases=2 Linecode=1P_OH_AL_4/0_Zuzara_2

New Line.l(r:p1rlv1928-rdt1146lv) Units=km Length=0.0885065 bus1=rdt1146lv.1.2 bus2=p1rlv1928.1.2 switch=n enabled=y phases=2 Linecode=1P_OH_AL_4/0_Zuzara_2

New Line.l(r:p1rlv1931-rdt1146lv) Units=km Length=0.109962 bus1=rdt1146lv.1.2 bus2=p1rlv1931.1.2 switch=n enabled=y phases=2 Linecode=1P_OH_AL_4/0_Zuzara_2

New Line.l(r:p1rlv1932-rdt1146lv) Units=km Length=0.143148 bus1=rdt1146lv.1.2 bus2=p1rlv1932.1.2 switch=n enabled=y phases=2 Linecode=1P_OH_AL_4/0_Zuzara_2

New Line.l(r:p1rlv1929-rdm1930) Units=km Length=0.0731915 bus1=rdm1930.1.2 bus2=p1rlv1929.1.2 switch=n enabled=y phases=2 Linecode=1P_OH_AL_4/0_Zuzara_2

New Line.l(r:p1rlv1930-rdm1930) Units=km Length=0.0767618 bus1=rdm1930.1.2 bus2=p1rlv1930.1.2 switch=n enabled=y phases=2 Linecode=1P_OH_AL_4/0_Zuzara_2

New Line.l(r:rdm1930-rdt1146lv) Units=km Length=0.0182279 bus1=rdt1146lv.1.2 bus2=rdm1930.1.2 switch=n enabled=y phases=2 Linecode=1P_OH_AL_2/0_Rucina_2

New Line.l(r:p1rlv1933-rdm1934) Units=km Length=0.00837055 bus1=rdm1934.1.2 bus2=p1rlv1933.1.2 switch=n enabled=y phases=2 Linecode=1P_OH_AL_2/0_Rucina_2

New Line.l(r:p1rlv1927-rdm1928) Units=km Length=0.0595902 bus1=rdm1928.1.2 bus2=p1rlv1927.1.2 switch=n enabled=y phases=2 Linecode=1P_OH_AL_4/0_Zuzara_2

New Line.l(r:rdm1928-rdm1934) Units=km Length=0.018217900000000002 bus1=rdm1934.1.2 bus2=rdm1928.1.2 switch=n enabled=y phases=2 Linecode=1P_OH_AL_2/0_Rucina_2

New Line.l(r:rdm1934-rdt1146lv) Units=km Length=0.018217900000000002 bus1=rdt1146lv.1.2 bus2=rdm1934.1.2 switch=n enabled=y phases=2 Linecode=1P_OH_AL_2/0_Rucina_2

New Line.l(r:p1rlv1934-rdt1147lv) Units=km Length=0.001 bus1=rdt1147lv.1.2 bus2=p1rlv1934.1.2 switch=n enabled=y phases=2 Linecode=1P_UG_AL_4/0_Sweetbriar_2

New Line.l(r:p1rlv1936-rdt1149lv) Units=km Length=0.001 bus1=rdt1149lv.1.2 bus2=p1rlv1936.1.2 switch=n enabled=y phases=2 Linecode=1P_UG_AL_1/0_Brenau_2

New Line.l(r:p1rlv1937-rdt1150lv) Units=km Length=0.099288 bus1=rdt1150lv.1.2 bus2=p1rlv1937.1.2 switch=n enabled=y phases=2 Linecode=1P_OH_AL_4/0_Zuzara_2

New Line.l(r:p1rlv1938-rdt1150lv) Units=km Length=0.0798413 bus1=rdt1150lv.1.2 bus2=p1rlv1938.1.2 switch=n enabled=y phases=2 Linecode=1P_OH_AL_4/0_Zuzara_2

New Line.l(r:p1rlv1939-rdt1151lv) Units=km Length=0.074647 bus1=rdt1151lv.1.2 bus2=p1rlv1939.1.2 switch=n enabled=y phases=2 Linecode=1P_OH_AL_4/0_Zuzara_2

New Line.l(r:p1rlv1941-rdt1151lv) Units=km Length=0.0966935 bus1=rdt1151lv.1.2 bus2=p1rlv1941.1.2 switch=n enabled=y phases=2 Linecode=1P_OH_AL_4/0_Zuzara_2

New Line.l(r:p1rlv1940-rdt1152lv) Units=km Length=0.050611 bus1=rdt1152lv.1.2 bus2=p1rlv1940.1.2 switch=n enabled=y phases=2 Linecode=1P_OH_AL_4/0_Zuzara_2

New Line.l(r:p1rlv1942-rdt1152lv) Units=km Length=0.12458100000000001 bus1=rdt1152lv.1.2 bus2=p1rlv1942.1.2 switch=n enabled=y phases=2 Linecode=1P_OH_AL_4/0_Zuzara_2

New Line.l(r:p1rlv1943-rdt1152lv) Units=km Length=0.0646262 bus1=rdt1152lv.1.2 bus2=p1rlv1943.1.2 switch=n enabled=y phases=2 Linecode=1P_OH_AL_4/0_Zuzara_2

New Line.l(r:p1rlv1944-rdt1152lv) Units=km Length=0.08321520000000002 bus1=rdt1152lv.1.2 bus2=p1rlv1944.1.2 switch=n enabled=y phases=2 Linecode=1P_OH_AL_4/0_Zuzara_2

New Line.l(r:p1rlv1945-rdt1152lv) Units=km Length=0.106537 bus1=rdt1152lv.1.2 bus2=p1rlv1945.1.2 switch=n enabled=y phases=2 Linecode=1P_OH_AL_4/0_Zuzara_2

New Line.l(r:p1rlv1946-rdt1153lv) Units=km Length=0.0213823 bus1=rdt1153lv.1.2 bus2=p1rlv1946.1.2 switch=n enabled=y phases=2 Linecode=1P_OH_AL_2/0_Rucina_2

New Line.l(r:p1rlv1947-rdt1153lv) Units=km Length=0.0213823 bus1=rdt1153lv.1.2 bus2=p1rlv1947.1.2 switch=n enabled=y phases=2 Linecode=1P_OH_AL_2/0_Rucina_2

New Line.l(r:p1rlv1948-rdt1154lv) Units=km Length=0.0456151 bus1=rdt1154lv.1.2 bus2=p1rlv1948.1.2 switch=n enabled=y phases=2 Linecode=1P_OH_AL_4/0_Zuzara_2

New Line.l(r:p1rlv1949-rdt1155lv) Units=km Length=0.027299 bus1=rdt1155lv.1.2 bus2=p1rlv1949.1.2 switch=n enabled=y phases=2 Linecode=1P_OH_AL_4/0_Zuzara_2

New Line.l(r:p1rlv1952-rdt1155lv) Units=km Length=0.0383389 bus1=rdt1155lv.1.2 bus2=p1rlv1952.1.2 switch=n enabled=y phases=2 Linecode=1P_OH_AL_4/0_Zuzara_2

New Line.l(r:p1rlv1953-rdt1155lv) Units=km Length=0.0179378 bus1=rdt1155lv.1.2 bus2=p1rlv1953.1.2 switch=n enabled=y phases=2 Linecode=1P_OH_AL_2/0_Rucina_2

New Line.l(r:p1rlv1954-rdt1155lv) Units=km Length=0.024829 bus1=rdt1155lv.1.2 bus2=p1rlv1954.1.2 switch=n enabled=y phases=2 Linecode=1P_OH_AL_2/0_Rucina_2

New Line.l(r:p1rlv1950-rdt1156lv) Units=km Length=0.0499967 bus1=rdt1156lv.1.2 bus2=p1rlv1950.1.2 switch=n enabled=y phases=2 Linecode=1P_OH_AL_4/0_Zuzara_2

New Line.l(r:p1rlv1951-rdm1955) Units=km Length=0.0284418 bus1=rdm1955.1.2 bus2=p1rlv1951.1.2 switch=n enabled=y phases=2 Linecode=1P_OH_AL_4/0_Zuzara_2

New Line.l(r:rdm1955-rdt1157lv) Units=km Length=0.018621 bus1=rdt1157lv.1.2 bus2=rdm1955.1.2 switch=n enabled=y phases=2 Linecode=1P_OH_AL_2/0_Rucina_2

New Line.l(r:p1rlv2624-rdm1956) Units=km Length=0.040952100000000005 bus1=rdm1956.1.2 bus2=p1rlv2624.1.2 switch=n enabled=y phases=2 Linecode=1P_OH_AL_4/0_Zuzara_2

New Line.l(r:rdm1956-rdt1157lv) Units=km Length=0.018622400000000004 bus1=rdt1157lv.1.2 bus2=rdm1956.1.2 switch=n enabled=y phases=2 Linecode=1P_OH_AL_2/0_Rucina_2

New Line.l(r:p1rlv1955-rdt1158lv) Units=km Length=0.001 bus1=rdt1158lv.1.2 bus2=p1rlv1955.1.2 switch=n enabled=y phases=2 Linecode=1P_OH_AL_4_Periwinkle_2

New Line.l(r:p1rlv1956-rdt1159lv) Units=km Length=0.0103683 bus1=rdt1159lv.1.2 bus2=p1rlv1956.1.2 switch=n enabled=y phases=2 Linecode=1P_OH_AL_2/0_Rucina_2

New Line.l(r:p1rlv1957-rdt1159lv) Units=km Length=0.0103683 bus1=rdt1159lv.1.2 bus2=p1rlv1957.1.2 switch=n enabled=y phases=2 Linecode=1P_OH_AL_2/0_Rucina_2

New Line.l(r:p1rlv1959-rdt1161lv) Units=km Length=0.001 bus1=rdt1161lv.1.2 bus2=p1rlv1959.1.2 switch=n enabled=y phases=2 Linecode=1P_OH_AL_4_Periwinkle_2

New Line.l(r:p1rlv1960-rdt1162lv) Units=km Length=0.001 bus1=rdt1162lv.1.2 bus2=p1rlv1960.1.2 switch=n enabled=y phases=2 Linecode=1P_OH_AL_4_Periwinkle_2

New Line.l(r:p1rlv1961-rdt1163lv) Units=km Length=0.0433983 bus1=rdt1163lv.1.2 bus2=p1rlv1961.1.2 switch=n enabled=y phases=2 Linecode=1P_OH_AL_4/0_Zuzara_2

New Line.l(r:p1rlv1962-rdt1164lv) Units=km Length=0.0987029 bus1=rdt1164lv.1.2 bus2=p1rlv1962.1.2 switch=n enabled=y phases=2 Linecode=1P_OH_AL_4/0_Zuzara_2

New Line.l(r:p1rlv1963-rdm1965) Units=km Length=0.0410817 bus1=rdm1965.1.2 bus2=p1rlv1963.1.2 switch=n enabled=y phases=2 Linecode=1P_OH_AL_4/0_Zuzara_2

New Line.l(r:rdm1965-rdt1165lv) Units=km Length=0.0192635 bus1=rdt1165lv.1.2 bus2=rdm1965.1.2 switch=n enabled=y phases=2 Linecode=1P_OH_AL_2/0_Rucina_2

New Line.l(r:p1rlv2614-rdm1966) Units=km Length=0.0366603 bus1=rdm1966.1.2 bus2=p1rlv2614.1.2 switch=n enabled=y phases=2 Linecode=1P_OH_AL_4/0_Zuzara_2

New Line.l(r:rdm1966-rdt1165lv) Units=km Length=0.0385467 bus1=rdt1165lv.1.2 bus2=rdm1966.1.2 switch=n enabled=y phases=2 Linecode=1P_OH_AL_4/0_Zuzara_2

New Line.l(r:p1rlv1964-rdt1166lv) Units=km Length=0.0271652 bus1=rdt1166lv.1.2 bus2=p1rlv1964.1.2 switch=n enabled=y phases=2 Linecode=1P_OH_AL_4/0_Zuzara_2

New Line.l(r:p1rlv1965-rdt1167lv) Units=km Length=0.0443407 bus1=rdt1167lv.1.2 bus2=p1rlv1965.1.2 switch=n enabled=y phases=2 Linecode=1P_OH_AL_4/0_Zuzara_2

New Line.l(r:p1rlv1966-rdt1167lv) Units=km Length=0.0315512 bus1=rdt1167lv.1.2 bus2=p1rlv1966.1.2 switch=n enabled=y phases=2 Linecode=1P_OH_AL_4/0_Zuzara_2

New Line.l(r:p1rlv1967-rdt1167lv) Units=km Length=0.0622512 bus1=rdt1167lv.1.2 bus2=p1rlv1967.1.2 switch=n enabled=y phases=2 Linecode=1P_OH_AL_4/0_Zuzara_2

New Line.l(r:p1rlv1968-rdt1168lv) Units=km Length=0.0632074 bus1=rdt1168lv.1.2 bus2=p1rlv1968.1.2 switch=n enabled=y phases=2 Linecode=1P_OH_AL_4/0_Zuzara_2

New Line.l(r:p1rlv1969-rdt1168lv) Units=km Length=0.05385480000000001 bus1=rdt1168lv.1.2 bus2=p1rlv1969.1.2 switch=n enabled=y phases=2 Linecode=1P_OH_AL_4/0_Zuzara_2

New Line.l(r:p1rlv1970-rdt1168lv) Units=km Length=0.04234240000000001 bus1=rdt1168lv.1.2 bus2=p1rlv1970.1.2 switch=n enabled=y phases=2 Linecode=1P_OH_AL_4/0_Zuzara_2

New Line.l(r:p1rlv1976-rdt1168lv) Units=km Length=0.0942711 bus1=rdt1168lv.1.2 bus2=p1rlv1976.1.2 switch=n enabled=y phases=2 Linecode=1P_OH_AL_4/0_Zuzara_2

New Line.l(r:p1rlv1977-rdt1168lv) Units=km Length=0.0760751 bus1=rdt1168lv.1.2 bus2=p1rlv1977.1.2 switch=n enabled=y phases=2 Linecode=1P_OH_AL_4/0_Zuzara_2

New Line.l(r:p1rlv1978-rdt1168lv) Units=km Length=0.0871004 bus1=rdt1168lv.1.2 bus2=p1rlv1978.1.2 switch=n enabled=y phases=2 Linecode=1P_OH_AL_4/0_Zuzara_2

New Line.l(r:p1rlv1971-rdt1169lv) Units=km Length=0.120968 bus1=rdt1169lv.1.2 bus2=p1rlv1971.1.2 switch=n enabled=y phases=2 Linecode=1P_OH_AL_4/0_Zuzara_2

New Line.l(r:p1rlv1972-rdm1978) Units=km Length=0.08975460000000002 bus1=rdm1978.1.2 bus2=p1rlv1972.1.2 switch=n enabled=y phases=2 Linecode=1P_OH_AL_4/0_Zuzara_2

New Line.l(r:p1rlv1973-rdm1978) Units=km Length=0.113448 bus1=rdm1978.1.2 bus2=p1rlv1973.1.2 switch=n enabled=y phases=2 Linecode=1P_OH_AL_4/0_Zuzara_2

New Line.l(r:rdm1978-rdt1169lv) Units=km Length=0.0188668 bus1=rdt1169lv.1.2 bus2=rdm1978.1.2 switch=n enabled=y phases=2 Linecode=1P_OH_AL_2/0_Rucina_2

New Line.l(r:p1rlv1974-rdm1980) Units=km Length=0.0620553 bus1=rdm1980.1.2 bus2=p1rlv1974.1.2 switch=n enabled=y phases=2 Linecode=1P_OH_AL_4/0_Zuzara_2

New Line.l(r:rdm1980-rdt1169lv) Units=km Length=0.018857 bus1=rdt1169lv.1.2 bus2=rdm1980.1.2 switch=n enabled=y phases=2 Linecode=1P_OH_AL_2/0_Rucina_2

New Line.l(r:p1rlv1975-rdt1170lv) Units=km Length=0.001 bus1=rdt1170lv.1.2 bus2=p1rlv1975.1.2 switch=n enabled=y phases=2 Linecode=1P_OH_AL_4_Periwinkle_2

New Line.l(r:p1rlv1979-rdt1171lv) Units=km Length=0.030149700000000005 bus1=rdt1171lv.1.2 bus2=p1rlv1979.1.2 switch=n enabled=y phases=2 Linecode=1P_OH_AL_4/0_Zuzara_2

New Line.l(r:p1rlv1980-rdt1171lv) Units=km Length=0.030149700000000005 bus1=rdt1171lv.1.2 bus2=p1rlv1980.1.2 switch=n enabled=y phases=2 Linecode=1P_OH_AL_4/0_Zuzara_2

New Line.l(r:p1rlv1981-rdt1172lv) Units=km Length=0.08750370000000002 bus1=rdt1172lv.1.2 bus2=p1rlv1981.1.2 switch=n enabled=y phases=2 Linecode=1P_OH_AL_4/0_Zuzara_2

New Line.l(r:p1rlv1982-rdt1173lv) Units=km Length=0.0843964 bus1=rdt1173lv.1.2 bus2=p1rlv1982.1.2 switch=n enabled=y phases=2 Linecode=1P_OH_AL_4/0_Zuzara_2

New Line.l(r:p1rlv1984-rdt1173lv) Units=km Length=0.0131792 bus1=rdt1173lv.1.2 bus2=p1rlv1984.1.2 switch=n enabled=y phases=2 Linecode=1P_OH_AL_2/0_Rucina_2

New Line.l(r:p1rlv1983-rdt1174lv) Units=km Length=0.0324891 bus1=rdt1174lv.1.2 bus2=p1rlv1983.1.2 switch=n enabled=y phases=2 Linecode=1P_OH_AL_4/0_Zuzara_2

New Line.l(r:p1rlv1985-rdt1175lv) Units=km Length=0.00920396 bus1=rdt1175lv.1.2 bus2=p1rlv1985.1.2 switch=n enabled=y phases=2 Linecode=1P_OH_AL_2/0_Rucina_2

New Line.l(r:p1rlv1986-rdt1176lv) Units=km Length=0.0448608 bus1=rdt1176lv.1.2 bus2=p1rlv1986.1.2 switch=n enabled=y phases=2 Linecode=1P_OH_AL_4/0_Zuzara_2

New Line.l(r:p1rlv1987-rdt1176lv) Units=km Length=0.11901 bus1=rdt1176lv.1.2 bus2=p1rlv1987.1.2 switch=n enabled=y phases=2 Linecode=1P_OH_AL_4/0_Zuzara_2

New Line.l(r:p1rlv1988-rdt1177lv) Units=km Length=0.001 bus1=rdt1177lv.1.2 bus2=p1rlv1988.1.2 switch=n enabled=y phases=2 Linecode=1P_OH_AL_4_Periwinkle_2

New Line.l(r:p1rlv1989-rdt1178lv) Units=km Length=0.0942113 bus1=rdt1178lv.1.2 bus2=p1rlv1989.1.2 switch=n enabled=y phases=2 Linecode=1P_OH_AL_4/0_Zuzara_2

New Line.l(r:p1rlv1990-rdm1993) Units=km Length=0.0632054 bus1=rdm1993.1.2 bus2=p1rlv1990.1.2 switch=n enabled=y phases=2 Linecode=1P_OH_AL_4/0_Zuzara_2

New Line.l(r:rdm1993-rdt1179lv) Units=km Length=0.013892800000000002 bus1=rdt1179lv.1.2 bus2=rdm1993.1.2 switch=n enabled=y phases=2 Linecode=1P_OH_AL_2/0_Rucina_2

New Line.l(r:p1rlv1991-rdm1994) Units=km Length=0.10253000000000001 bus1=rdm1994.1.2 bus2=p1rlv1991.1.2 switch=n enabled=y phases=2 Linecode=1P_OH_AL_4/0_Zuzara_2

New Line.l(r:rdm1994-rdt1179lv) Units=km Length=0.0138936 bus1=rdt1179lv.1.2 bus2=rdm1994.1.2 switch=n enabled=y phases=2 Linecode=1P_OH_AL_2/0_Rucina_2

New Line.l(r:p1rlv1992-rdt1180lv) Units=km Length=0.001 bus1=rdt1180lv.1.2 bus2=p1rlv1992.1.2 switch=n enabled=y phases=2 Linecode=1P_OH_AL_4_Periwinkle_2

New Line.l(r:p1rlv1993-rdt1181lv) Units=km Length=0.0922533 bus1=rdt1181lv.1.2 bus2=p1rlv1993.1.2 switch=n enabled=y phases=2 Linecode=1P_OH_AL_4/0_Zuzara_2

New Line.l(r:p1rlv1994-rdt1182lv) Units=km Length=0.0433006 bus1=rdt1182lv.1.2 bus2=p1rlv1994.1.2 switch=n enabled=y phases=2 Linecode=1P_OH_AL_4/0_Zuzara_2

New Line.l(r:p1rlv1995-rdt1183lv) Units=km Length=0.0519836 bus1=rdt1183lv.1.2 bus2=p1rlv1995.1.2 switch=n enabled=y phases=2 Linecode=1P_OH_AL_4/0_Zuzara_2

New Line.l(r:p1rlv1997-rdt1184lv) Units=km Length=0.077777 bus1=rdt1184lv.1.2 bus2=p1rlv1997.1.2 switch=n enabled=y phases=2 Linecode=1P_OH_AL_4/0_Zuzara_2

New Line.l(r:p1rlv1996-rdm1999) Units=km Length=0.0706744 bus1=rdm1999.1.2 bus2=p1rlv1996.1.2 switch=n enabled=y phases=2 Linecode=1P_OH_AL_4/0_Zuzara_2

New Line.l(r:rdm1999-rdt1184lv) Units=km Length=0.0187926 bus1=rdt1184lv.1.2 bus2=rdm1999.1.2 switch=n enabled=y phases=2 Linecode=1P_OH_AL_2/0_Rucina_2

New Line.l(r:p1rlv1998-rdm2001) Units=km Length=0.0405927 bus1=rdm2001.1.2 bus2=p1rlv1998.1.2 switch=n enabled=y phases=2 Linecode=1P_OH_AL_4/0_Zuzara_2

New Line.l(r:rdm2001-rdt1184lv) Units=km Length=0.0187839 bus1=rdt1184lv.1.2 bus2=rdm2001.1.2 switch=n enabled=y phases=2 Linecode=1P_OH_AL_2/0_Rucina_2

New Line.l(r:p1rlv1999-rdt1185lv) Units=km Length=0.0626692 bus1=rdt1185lv.1.2 bus2=p1rlv1999.1.2 switch=n enabled=y phases=2 Linecode=1P_OH_AL_4/0_Zuzara_2

New Line.l(r:p1rlv2000-rdt1186lv) Units=km Length=0.0280018 bus1=rdt1186lv.1.2 bus2=p1rlv2000.1.2 switch=n enabled=y phases=2 Linecode=1P_OH_AL_4/0_Zuzara_2

New Line.l(r:p1rlv2001-rdt1187lv) Units=km Length=0.001 bus1=rdt1187lv.1.2 bus2=p1rlv2001.1.2 switch=n enabled=y phases=2 Linecode=1P_OH_AL_4_Periwinkle_2

New Line.l(r:p1rlv2002-rdt1188lv) Units=km Length=0.0342084 bus1=rdt1188lv.1.2 bus2=p1rlv2002.1.2 switch=n enabled=y phases=2 Linecode=1P_OH_AL_4/0_Zuzara_2

New Line.l(r:p1rlv2003-rdt1189lv) Units=km Length=0.0393511 bus1=rdt1189lv.1.2 bus2=p1rlv2003.1.2 switch=n enabled=y phases=2 Linecode=1P_OH_AL_4/0_Zuzara_2

New Line.l(r:p1rlv2004-rdt1189lv) Units=km Length=0.0151414 bus1=rdt1189lv.1.2 bus2=p1rlv2004.1.2 switch=n enabled=y phases=2 Linecode=1P_OH_AL_2/0_Rucina_2

New Line.l(r:p1rlv2005-rdt1189lv) Units=km Length=0.0381589 bus1=rdt1189lv.1.2 bus2=p1rlv2005.1.2 switch=n enabled=y phases=2 Linecode=1P_OH_AL_4/0_Zuzara_2

New Line.l(r:p1rlv2006-rdt1190lv) Units=km Length=0.0386953 bus1=rdt1190lv.1.2 bus2=p1rlv2006.1.2 switch=n enabled=y phases=2 Linecode=1P_OH_AL_4/0_Zuzara_2

New Line.l(r:p1rlv2007-rdt1190lv) Units=km Length=0.0494073 bus1=rdt1190lv.1.2 bus2=p1rlv2007.1.2 switch=n enabled=y phases=2 Linecode=1P_OH_AL_4/0_Zuzara_2

New Line.l(r:p1rlv2008-rdm2011) Units=km Length=0.05974440000000001 bus1=rdm2011.1.2 bus2=p1rlv2008.1.2 switch=n enabled=y phases=2 Linecode=1P_OH_AL_4/0_Zuzara_2

New Line.l(r:rdm2011-rdt1190lv) Units=km Length=0.0179543 bus1=rdt1190lv.1.2 bus2=rdm2011.1.2 switch=n enabled=y phases=2 Linecode=1P_OH_AL_2/0_Rucina_2

New Line.l(r:p1rlv2009-rdt1191lv) Units=km Length=0.041132100000000005 bus1=rdt1191lv.1.2 bus2=p1rlv2009.1.2 switch=n enabled=y phases=2 Linecode=1P_OH_AL_4/0_Zuzara_2

New Line.l(r:p1rlv2010-rdt1192lv) Units=km Length=0.0369406 bus1=rdt1192lv.1.2 bus2=p1rlv2010.1.2 switch=n enabled=y phases=2 Linecode=1P_OH_AL_4/0_Zuzara_2

New Line.l(r:p1rlv2011-rdt1193lv) Units=km Length=0.0331988 bus1=rdt1193lv.1.2 bus2=p1rlv2011.1.2 switch=n enabled=y phases=2 Linecode=1P_OH_AL_4/0_Zuzara_2

New Line.l(r:p1rlv2012-rdt1194lv) Units=km Length=0.05019110000000001 bus1=rdt1194lv.1.2 bus2=p1rlv2012.1.2 switch=n enabled=y phases=2 Linecode=1P_OH_AL_4/0_Zuzara_2

New Line.l(r:p1rlv2013-rdm2016) Units=km Length=0.08240420000000001 bus1=rdm2016.1.2 bus2=p1rlv2013.1.2 switch=n enabled=y phases=2 Linecode=1P_OH_AL_4/0_Zuzara_2

New Line.l(r:rdm2016-rdt1195lv) Units=km Length=0.036151 bus1=rdt1195lv.1.2 bus2=rdm2016.1.2 switch=n enabled=y phases=2 Linecode=1P_OH_AL_4/0_Zuzara_2

New Line.l(r:p1rlv2014-rdm2017) Units=km Length=0.0670775 bus1=rdm2017.1.2 bus2=p1rlv2014.1.2 switch=n enabled=y phases=2 Linecode=1P_OH_AL_4/0_Zuzara_2

New Line.l(r:p1rlv2015-rdm2017) Units=km Length=0.12218 bus1=rdm2017.1.2 bus2=p1rlv2015.1.2 switch=n enabled=y phases=2 Linecode=1P_OH_AL_4/0_Zuzara_2

New Line.l(r:rdm2017-rdt1195lv) Units=km Length=0.0122325 bus1=rdt1195lv.1.2 bus2=rdm2017.1.2 switch=n enabled=y phases=2 Linecode=1P_OH_AL_2/0_Rucina_2

New Line.l(r:p1rlv2016-rdt1196lv) Units=km Length=0.102331 bus1=rdt1196lv.1.2 bus2=p1rlv2016.1.2 switch=n enabled=y phases=2 Linecode=1P_OH_AL_4/0_Zuzara_2

New Line.l(r:p1rlv2017-rdt1196lv) Units=km Length=0.0494895 bus1=rdt1196lv.1.2 bus2=p1rlv2017.1.2 switch=n enabled=y phases=2 Linecode=1P_OH_AL_4/0_Zuzara_2

New Line.l(r:p1rlv2018-rdt1197lv) Units=km Length=0.057925800000000006 bus1=rdt1197lv.1.2 bus2=p1rlv2018.1.2 switch=n enabled=y phases=2 Linecode=1P_OH_AL_4/0_Zuzara_2

New Line.l(r:p1rlv2019-rdt1198lv) Units=km Length=0.044449100000000005 bus1=rdt1198lv.1.2 bus2=p1rlv2019.1.2 switch=n enabled=y phases=2 Linecode=1P_OH_AL_4/0_Zuzara_2

New Line.l(r:p1rlv2020-rdt1199lv) Units=km Length=0.037689900000000005 bus1=rdt1199lv.1.2 bus2=p1rlv2020.1.2 switch=n enabled=y phases=2 Linecode=1P_OH_AL_4/0_Zuzara_2

New Line.l(r:p1rlv2021-rdt1200lv) Units=km Length=0.052543700000000006 bus1=rdt1200lv.1.2 bus2=p1rlv2021.1.2 switch=n enabled=y phases=2 Linecode=1P_OH_AL_4/0_Zuzara_2

New Line.l(r:p1rlv2023-rdt1202lv) Units=km Length=0.0433338 bus1=rdt1202lv.1.2 bus2=p1rlv2023.1.2 switch=n enabled=y phases=2 Linecode=1P_OH_AL_4/0_Zuzara_2

New Line.l(r:p1rlv2024-rdt1203lv) Units=km Length=0.0601134 bus1=rdt1203lv.1.2 bus2=p1rlv2024.1.2 switch=n enabled=y phases=2 Linecode=1P_OH_AL_4/0_Zuzara_2

New Line.l(r:p1rlv2025-rdt1203lv) Units=km Length=0.100715 bus1=rdt1203lv.1.2 bus2=p1rlv2025.1.2 switch=n enabled=y phases=2 Linecode=1P_OH_AL_4/0_Zuzara_2

New Line.l(r:p1rlv2522-rdt1521lv) Units=km Length=0.0730311 bus1=rdt1521lv.1.2 bus2=p1rlv2522.1.2 switch=n enabled=y phases=2 Linecode=1P_OH_AL_4/0_Zuzara_2

New Line.l(r:p1rlv2523-rdt1521lv) Units=km Length=0.05445710000000001 bus1=rdt1521lv.1.2 bus2=p1rlv2523.1.2 switch=n enabled=y phases=2 Linecode=1P_OH_AL_4/0_Zuzara_2

New Line.l(r:p1rlv2524-rdt1521lv) Units=km Length=0.0461438 bus1=rdt1521lv.1.2 bus2=p1rlv2524.1.2 switch=n enabled=y phases=2 Linecode=1P_OH_AL_4/0_Zuzara_2

New Line.l(r:p1rlv2525-rdt1522lv) Units=km Length=0.0522865 bus1=rdt1522lv.1.2 bus2=p1rlv2525.1.2 switch=n enabled=y phases=2 Linecode=1P_OH_AL_4/0_Zuzara_2

New Line.l(r:p1rlv2526-rdt1523lv) Units=km Length=0.0352814 bus1=rdt1523lv.1.2 bus2=p1rlv2526.1.2 switch=n enabled=y phases=2 Linecode=1P_OH_AL_4/0_Zuzara_2

New Line.l(r:p1rlv2527-rdt1524lv) Units=km Length=0.0510761 bus1=rdt1524lv.1.2 bus2=p1rlv2527.1.2 switch=n enabled=y phases=2 Linecode=1P_OH_AL_4/0_Zuzara_2

New Line.l(r:p1rlv2528-rdt1525lv) Units=km Length=0.064099 bus1=rdt1525lv.1.2 bus2=p1rlv2528.1.2 switch=n enabled=y phases=2 Linecode=1P_OH_AL_4/0_Zuzara_2

New Line.l(r:p1rlv2532-rdm2524) Units=km Length=0.038678800000000006 bus1=rdm2524.1.2 bus2=p1rlv2532.1.2 switch=n enabled=y phases=2 Linecode=1P_OH_AL_4/0_Zuzara_2

New Line.l(r:p1rlv2529-rdm2523) Units=km Length=0.0461412 bus1=rdm2523.1.2 bus2=p1rlv2529.1.2 switch=n enabled=y phases=2 Linecode=1P_OH_AL_4/0_Zuzara_2

New Line.l(r:rdm2523-rdm2524) Units=km Length=0.0551266 bus1=rdm2524.1.2 bus2=rdm2523.1.2 switch=n enabled=y phases=2 Linecode=1P_OH_AL_4/0_Zuzara_2

New Line.l(r:rdm2524-rdt1526lv) Units=km Length=0.00936172 bus1=rdt1526lv.1.2 bus2=rdm2524.1.2 switch=n enabled=y phases=2 Linecode=1P_OH_AL_2/0_Rucina_2

New Line.l(r:p1rlv2534-rdm2525) Units=km Length=0.0264455 bus1=rdm2525.1.2 bus2=p1rlv2534.1.2 switch=n enabled=y phases=2 Linecode=1P_OH_AL_2/0_Rucina_2

New Line.l(r:rdm2525-rdt1526lv) Units=km Length=0.0400387 bus1=rdt1526lv.1.2 bus2=rdm2525.1.2 switch=n enabled=y phases=2 Linecode=1P_OH_AL_4/0_Zuzara_2

New Line.l(r:p1rlv2530-rdt1527lv) Units=km Length=0.0354575 bus1=rdt1527lv.1.2 bus2=p1rlv2530.1.2 switch=n enabled=y phases=2 Linecode=1P_OH_AL_4/0_Zuzara_2

New Line.l(r:p1rlv2531-rdm2527) Units=km Length=0.0414533 bus1=rdm2527.1.2 bus2=p1rlv2531.1.2 switch=n enabled=y phases=2 Linecode=1P_OH_AL_4/0_Zuzara_2

New Line.l(r:rdm2527-rdt1527lv) Units=km Length=0.0190194 bus1=rdt1527lv.1.2 bus2=rdm2527.1.2 switch=n enabled=y phases=2 Linecode=1P_OH_AL_2/0_Rucina_2

New Line.l(r:p1rlv2533-rdt1528lv) Units=km Length=0.0314359 bus1=rdt1528lv.1.2 bus2=p1rlv2533.1.2 switch=n enabled=y phases=2 Linecode=1P_OH_AL_4/0_Zuzara_2

New Line.l(r:p1rlv2535-rdt1529lv) Units=km Length=0.04519 bus1=rdt1529lv.1.2 bus2=p1rlv2535.1.2 switch=n enabled=y phases=2 Linecode=1P_OH_AL_4/0_Zuzara_2

New Line.l(r:p1rlv2536-rdt1530lv) Units=km Length=0.0287303 bus1=rdt1530lv.1.2 bus2=p1rlv2536.1.2 switch=n enabled=y phases=2 Linecode=1P_OH_AL_4/0_Zuzara_2

New Line.l(r:p1rlv2537-rdt1531lv) Units=km Length=0.021565300000000003 bus1=rdt1531lv.1.2 bus2=p1rlv2537.1.2 switch=n enabled=y phases=2 Linecode=1P_OH_AL_2/0_Rucina_2

New Line.l(r:p1rlv2538-rdt1532lv) Units=km Length=0.0195795 bus1=rdt1532lv.1.2 bus2=p1rlv2538.1.2 switch=n enabled=y phases=2 Linecode=1P_OH_AL_2/0_Rucina_2

New Line.l(r:p1rlv2539-rdt1532lv) Units=km Length=0.0599875 bus1=rdt1532lv.1.2 bus2=p1rlv2539.1.2 switch=n enabled=y phases=2 Linecode=1P_OH_AL_4/0_Zuzara_2

New Line.l(r:p1rlv2540-rdt1533lv) Units=km Length=0.0324096 bus1=rdt1533lv.1.2 bus2=p1rlv2540.1.2 switch=n enabled=y phases=2 Linecode=1P_OH_AL_4/0_Zuzara_2

New Line.l(r:p1rlv2545-rdt1538lv) Units=km Length=0.0336686 bus1=rdt1538lv.1.2 bus2=p1rlv2545.1.2 switch=n enabled=y phases=2 Linecode=1P_OH_AL_4/0_Zuzara_2

New Line.l(r:p1rlv2548-rdt1540lv) Units=km Length=0.001 bus1=rdt1540lv.1.2 bus2=p1rlv2548.1.2 switch=n enabled=y phases=2 Linecode=1P_OH_AL_4_Periwinkle_2

New Line.l(r:p1rlv2553-rdt1541lv) Units=km Length=0.0355334 bus1=rdt1541lv.1.2 bus2=p1rlv2553.1.2 switch=n enabled=y phases=2 Linecode=1P_OH_AL_4/0_Zuzara_2

New Line.l(r:p1rlv2549-rdm2543) Units=km Length=0.091176 bus1=rdm2543.1.2 bus2=p1rlv2549.1.2 switch=n enabled=y phases=2 Linecode=1P_OH_AL_4/0_Zuzara_2

New Line.l(r:p1rlv2552-rdm2543) Units=km Length=0.0220467 bus1=rdm2543.1.2 bus2=p1rlv2552.1.2 switch=n enabled=y phases=2 Linecode=1P_OH_AL_2/0_Rucina_2

New Line.l(r:rdm2543-rdt1541lv) Units=km Length=0.0197546 bus1=rdt1541lv.1.2 bus2=rdm2543.1.2 switch=n enabled=y phases=2 Linecode=1P_OH_AL_2/0_Rucina_2

New Line.l(r:p1rlv2550-rdm2544) Units=km Length=0.0754378 bus1=rdm2544.1.2 bus2=p1rlv2550.1.2 switch=n enabled=y phases=2 Linecode=1P_OH_AL_4/0_Zuzara_2

New Line.l(r:p1rlv2551-rdm2545) Units=km Length=0.0644612 bus1=rdm2545.1.2 bus2=p1rlv2551.1.2 switch=n enabled=y phases=2 Linecode=1P_OH_AL_4/0_Zuzara_2

New Line.l(r:rdm2544-rdm2545) Units=km Length=0.0197601 bus1=rdm2544.1.2 bus2=rdm2545.1.2 switch=n enabled=y phases=2 Linecode=1P_OH_AL_2/0_Rucina_2

New Line.l(r:rdm2544-rdt1541lv) Units=km Length=0.0197638 bus1=rdt1541lv.1.2 bus2=rdm2544.1.2 switch=n enabled=y phases=2 Linecode=1P_OH_AL_2/0_Rucina_2

New Line.l(r:p1rlv2554-rdt1542lv) Units=km Length=0.0332559 bus1=rdt1542lv.1.2 bus2=p1rlv2554.1.2 switch=n enabled=y phases=2 Linecode=1P_OH_AL_4/0_Zuzara_2

New Line.l(r:p1rlv2555-rdm2549) Units=km Length=0.014975 bus1=rdm2549.1.2 bus2=p1rlv2555.1.2 switch=n enabled=y phases=2 Linecode=1P_OH_AL_2/0_Rucina_2

New Line.l(r:rdm2549-rdt1542lv) Units=km Length=0.0197638 bus1=rdt1542lv.1.2 bus2=rdm2549.1.2 switch=n enabled=y phases=2 Linecode=1P_OH_AL_2/0_Rucina_2

New Line.l(r:p1rlv2556-rdm2550) Units=km Length=0.0503773 bus1=rdm2550.1.2 bus2=p1rlv2556.1.2 switch=n enabled=y phases=2 Linecode=1P_OH_AL_4/0_Zuzara_2

New Line.l(r:p1rlv2558-rdm2550) Units=km Length=0.04886480000000001 bus1=rdm2550.1.2 bus2=p1rlv2558.1.2 switch=n enabled=y phases=2 Linecode=1P_OH_AL_4/0_Zuzara_2

New Line.l(r:p1rlv2559-rdm2550) Units=km Length=0.0815739 bus1=rdm2550.1.2 bus2=p1rlv2559.1.2 switch=n enabled=y phases=2 Linecode=1P_OH_AL_4/0_Zuzara_2

New Line.l(r:rdm2550-rdt1543lv) Units=km Length=0.0194147 bus1=rdt1543lv.1.2 bus2=rdm2550.1.2 switch=n enabled=y phases=2 Linecode=1P_OH_AL_2/0_Rucina_2

New Line.l(r:p1rlv2560-rdm2553) Units=km Length=0.057954 bus1=rdm2553.1.2 bus2=p1rlv2560.1.2 switch=n enabled=y phases=2 Linecode=1P_UG_AL_1/0_Brenau_2

New Line.l(r:p1rlv2561-rdm2554) Units=km Length=0.0374558 bus1=rdm2554.1.2 bus2=p1rlv2561.1.2 switch=n enabled=y phases=2 Linecode=1P_UG_AL_1/0_Brenau_2

New Line.l(r:p1rlv2562-rdm2554) Units=km Length=0.060052 bus1=rdm2554.1.2 bus2=p1rlv2562.1.2 switch=n enabled=y phases=2 Linecode=1P_UG_AL_1/0_Brenau_2

New Line.l(r:rdm2553-rdm2554) Units=km Length=0.029126700000000002 bus1=rdm2553.1.2 bus2=rdm2554.1.2 switch=n enabled=y phases=2 Linecode=1P_UG_AL_2/0_Converse_2

New Line.l(r:rdm2553-rdt1543lv) Units=km Length=0.00971574 bus1=rdt1543lv.1.2 bus2=rdm2553.1.2 switch=n enabled=y phases=2 Linecode=1P_UG_AL_4/0_Sweetbriar_2

New Line.l(r:p1rlv2557-rdt1544lv) Units=km Length=0.0795622 bus1=rdt1544lv.1.2 bus2=p1rlv2557.1.2 switch=n enabled=y phases=2 Linecode=1P_OH_AL_4/0_Zuzara_2

New Line.l(r:p1rlv2563-rdt1545lv) Units=km Length=0.0879914 bus1=rdt1545lv.1.2 bus2=p1rlv2563.1.2 switch=n enabled=y phases=2 Linecode=1P_OH_AL_4/0_Zuzara_2

New Line.l(r:p1rlv2564-rdt1546lv) Units=km Length=0.0259924 bus1=rdt1546lv.1.2 bus2=p1rlv2564.1.2 switch=n enabled=y phases=2 Linecode=1P_OH_AL_2/0_Rucina_2

New Line.l(r:p1rlv2565-rdt1547lv) Units=km Length=0.025335 bus1=rdt1547lv.1.2 bus2=p1rlv2565.1.2 switch=n enabled=y phases=2 Linecode=1P_OH_AL_2/0_Rucina_2

New Line.l(r:p1rlv3235-rdt1548lv) Units=km Length=0.062023400000000006 bus1=rdt1548lv.1.2 bus2=p1rlv3235.1.2 switch=n enabled=y phases=2 Linecode=1P_OH_AL_4/0_Zuzara_2

New Line.l(r:p1rlv2566-rdm2560) Units=km Length=0.0449172 bus1=rdm2560.1.2 bus2=p1rlv2566.1.2 switch=n enabled=y phases=2 Linecode=1P_OH_AL_4/0_Zuzara_2

New Line.l(r:p1rlv2568-rdm2560) Units=km Length=0.0710156 bus1=rdm2560.1.2 bus2=p1rlv2568.1.2 switch=n enabled=y phases=2 Linecode=1P_OH_AL_4/0_Zuzara_2

New Line.l(r:rdm2560-rdt1548lv) Units=km Length=0.0197596 bus1=rdt1548lv.1.2 bus2=rdm2560.1.2 switch=n enabled=y phases=2 Linecode=1P_OH_AL_2/0_Rucina_2

New Line.l(r:p1rlv2567-rdm2561) Units=km Length=0.0294883 bus1=rdm2561.1.2 bus2=p1rlv2567.1.2 switch=n enabled=y phases=2 Linecode=1P_OH_AL_4/0_Zuzara_2

New Line.l(r:rdm2561-rdt1548lv) Units=km Length=0.0592684 bus1=rdt1548lv.1.2 bus2=rdm2561.1.2 switch=n enabled=y phases=2 Linecode=1P_OH_AL_4/0_Zuzara_2

New Line.l(r:p1rlv2569-rdt1549lv) Units=km Length=0.001 bus1=rdt1549lv.1.2 bus2=p1rlv2569.1.2 switch=n enabled=y phases=2 Linecode=1P_OH_AL_4_Periwinkle_2

New Line.l(r:p1rlv2570-rdt1550lv) Units=km Length=0.027057200000000003 bus1=rdt1550lv.1.2 bus2=p1rlv2570.1.2 switch=n enabled=y phases=2 Linecode=1P_OH_AL_4/0_Zuzara_2

New Line.l(r:p1rlv2571-rdt1550lv) Units=km Length=0.0142516 bus1=rdt1550lv.1.2 bus2=p1rlv2571.1.2 switch=n enabled=y phases=2 Linecode=1P_OH_AL_2/0_Rucina_2

New Line.l(r:p1rlv2572-rdt1550lv) Units=km Length=0.0360728 bus1=rdt1550lv.1.2 bus2=p1rlv2572.1.2 switch=n enabled=y phases=2 Linecode=1P_OH_AL_4/0_Zuzara_2

New Line.l(r:p1rlv2573-rdt1550lv) Units=km Length=0.0285581 bus1=rdt1550lv.1.2 bus2=p1rlv2573.1.2 switch=n enabled=y phases=2 Linecode=1P_OH_AL_4/0_Zuzara_2

New Line.l(r:p1rlv2574-rdt1551lv) Units=km Length=0.006985590000000001 bus1=rdt1551lv.1.2 bus2=p1rlv2574.1.2 switch=n enabled=y phases=2 Linecode=1P_OH_AL_2/0_Rucina_2

New Line.l(r:p1rlv2575-rdt1551lv) Units=km Length=0.006985590000000001 bus1=rdt1551lv.1.2 bus2=p1rlv2575.1.2 switch=n enabled=y phases=2 Linecode=1P_OH_AL_2/0_Rucina_2

New Line.l(r:p1rlv2576-rdt1552lv) Units=km Length=0.001 bus1=rdt1552lv.1.2 bus2=p1rlv2576.1.2 switch=n enabled=y phases=2 Linecode=1P_OH_AL_4_Periwinkle_2

New Line.l(r:p1rlv2577-rdt1553lv) Units=km Length=0.001 bus1=rdt1553lv.1.2 bus2=p1rlv2577.1.2 switch=n enabled=y phases=2 Linecode=1P_OH_AL_4_Periwinkle_2

New Line.l(r:p1rlv2578-rdt1554lv) Units=km Length=0.001 bus1=rdt1554lv.1.2 bus2=p1rlv2578.1.2 switch=n enabled=y phases=2 Linecode=1P_OH_AL_4_Periwinkle_2

New Line.l(r:p1rlv2579-rdm2574) Units=km Length=0.0895185 bus1=rdm2574.1.2 bus2=p1rlv2579.1.2 switch=n enabled=y phases=2 Linecode=1P_OH_AL_4/0_Zuzara_2

New Line.l(r:p1rlv2580-rdm2574) Units=km Length=0.099292 bus1=rdm2574.1.2 bus2=p1rlv2580.1.2 switch=n enabled=y phases=2 Linecode=1P_OH_AL_4/0_Zuzara_2

New Line.l(r:rdm2574-rdt1555lv) Units=km Length=0.0121655 bus1=rdt1555lv.1.2 bus2=rdm2574.1.2 switch=n enabled=y phases=2 Linecode=1P_OH_AL_2/0_Rucina_2

New Line.l(r:p1rlv2581-rdm2576) Units=km Length=0.0901095 bus1=rdm2576.1.2 bus2=p1rlv2581.1.2 switch=n enabled=y phases=2 Linecode=1P_OH_AL_4/0_Zuzara_2

New Line.l(r:p1rlv2582-rdm2577) Units=km Length=0.0788917 bus1=rdm2577.1.2 bus2=p1rlv2582.1.2 switch=n enabled=y phases=2 Linecode=1P_OH_AL_4/0_Zuzara_2

New Line.l(r:rdm2576-rdm2577) Units=km Length=0.0177656 bus1=rdm2576.1.2 bus2=rdm2577.1.2 switch=n enabled=y phases=2 Linecode=1P_OH_AL_2/0_Rucina_2

New Line.l(r:rdm2576-rdt1555lv) Units=km Length=0.0177694 bus1=rdt1555lv.1.2 bus2=rdm2576.1.2 switch=n enabled=y phases=2 Linecode=1P_OH_AL_2/0_Rucina_2

New Line.l(r:p1rlv2583-rdt1556lv) Units=km Length=0.0733404 bus1=rdt1556lv.1.2 bus2=p1rlv2583.1.2 switch=n enabled=y phases=2 Linecode=1P_OH_AL_4/0_Zuzara_2

New Line.l(r:p1rlv2584-rdt1556lv) Units=km Length=0.112336 bus1=rdt1556lv.1.2 bus2=p1rlv2584.1.2 switch=n enabled=y phases=2 Linecode=1P_OH_AL_4/0_Zuzara_2

New Line.l(r:p1rlv2585-rdt1557lv) Units=km Length=0.001 bus1=rdt1557lv.1.2 bus2=p1rlv2585.1.2 switch=n enabled=y phases=2 Linecode=1P_OH_AL_4_Periwinkle_2

New Line.l(r:p1rlv2586-rdt1558lv) Units=km Length=0.0665775 bus1=rdt1558lv.1.2 bus2=p1rlv2586.1.2 switch=n enabled=y phases=2 Linecode=1P_OH_AL_4/0_Zuzara_2

New Line.l(r:p1rlv2590-rdt1558lv) Units=km Length=0.13183800000000004 bus1=rdt1558lv.1.2 bus2=p1rlv2590.1.2 switch=n enabled=y phases=2 Linecode=1P_OH_AL_4/0_Zuzara_2

New Line.l(r:p1rlv2594-rdt1558lv) Units=km Length=0.0157833 bus1=rdt1558lv.1.2 bus2=p1rlv2594.1.2 switch=n enabled=y phases=2 Linecode=1P_OH_AL_2/0_Rucina_2

New Line.l(r:p1rlv2595-rdt1558lv) Units=km Length=0.049101 bus1=rdt1558lv.1.2 bus2=p1rlv2595.1.2 switch=n enabled=y phases=2 Linecode=1P_OH_AL_4/0_Zuzara_2

New Line.l(r:p1rlv2596-rdt1558lv) Units=km Length=0.04820950000000001 bus1=rdt1558lv.1.2 bus2=p1rlv2596.1.2 switch=n enabled=y phases=2 Linecode=1P_OH_AL_4/0_Zuzara_2

New Line.l(r:p1rlv2587-rdt1559lv) Units=km Length=0.066697 bus1=rdt1559lv.1.2 bus2=p1rlv2587.1.2 switch=n enabled=y phases=2 Linecode=1P_OH_AL_4/0_Zuzara_2

New Line.l(r:p1rlv2588-rdt1560lv) Units=km Length=0.0305905 bus1=rdt1560lv.1.2 bus2=p1rlv2588.1.2 switch=n enabled=y phases=2 Linecode=1P_OH_AL_4/0_Zuzara_2

New Line.l(r:p1rlv2589-rdt1561lv) Units=km Length=0.0555381 bus1=rdt1561lv.1.2 bus2=p1rlv2589.1.2 switch=n enabled=y phases=2 Linecode=1P_OH_AL_4/0_Zuzara_2

New Line.l(r:p1rlv2591-rdt1562lv) Units=km Length=0.0449329 bus1=rdt1562lv.1.2 bus2=p1rlv2591.1.2 switch=n enabled=y phases=2 Linecode=1P_OH_AL_4/0_Zuzara_2

New Line.l(r:p1rlv2592-rdt1562lv) Units=km Length=0.03806880000000001 bus1=rdt1562lv.1.2 bus2=p1rlv2592.1.2 switch=n enabled=y phases=2 Linecode=1P_OH_AL_4/0_Zuzara_2

New Line.l(r:p1rlv2593-rdt1562lv) Units=km Length=0.0825059 bus1=rdt1562lv.1.2 bus2=p1rlv2593.1.2 switch=n enabled=y phases=2 Linecode=1P_OH_AL_4/0_Zuzara_2

New Line.l(r:p1rlv2597-rdt1563lv) Units=km Length=0.026633 bus1=rdt1563lv.1.2 bus2=p1rlv2597.1.2 switch=n enabled=y phases=2 Linecode=1P_OH_AL_2/0_Rucina_2

New Line.l(r:p1rlv2598-rdt1564lv) Units=km Length=0.0266901 bus1=rdt1564lv.1.2 bus2=p1rlv2598.1.2 switch=n enabled=y phases=2 Linecode=1P_OH_AL_2/0_Rucina_2

New Line.l(r:p1rlv2611-rdt1575lv) Units=km Length=0.0209756 bus1=rdt1575lv.1.2 bus2=p1rlv2611.1.2 switch=n enabled=y phases=2 Linecode=1P_OH_AL_2/0_Rucina_2

New Line.l(r:p1rlv2612-rdt1575lv) Units=km Length=0.0556781 bus1=rdt1575lv.1.2 bus2=p1rlv2612.1.2 switch=n enabled=y phases=2 Linecode=1P_OH_AL_4/0_Zuzara_2

New Line.l(r:p1rlv2618-rdt1575lv) Units=km Length=0.0740466 bus1=rdt1575lv.1.2 bus2=p1rlv2618.1.2 switch=n enabled=y phases=2 Linecode=1P_OH_AL_4/0_Zuzara_2

New Line.l(r:p1rlv2613-rdt1576lv) Units=km Length=0.001 bus1=rdt1576lv.1.2 bus2=p1rlv2613.1.2 switch=n enabled=y phases=2 Linecode=1P_OH_AL_4_Periwinkle_2

New Line.l(r:p1rlv2615-rdt1577lv) Units=km Length=0.039345 bus1=rdt1577lv.1.2 bus2=p1rlv2615.1.2 switch=n enabled=y phases=2 Linecode=1P_OH_AL_4/0_Zuzara_2

New Line.l(r:p1rlv2617-rdt1577lv) Units=km Length=0.039345 bus1=rdt1577lv.1.2 bus2=p1rlv2617.1.2 switch=n enabled=y phases=2 Linecode=1P_OH_AL_4/0_Zuzara_2

New Line.l(r:p1rlv2616-rdt1578lv) Units=km Length=0.001 bus1=rdt1578lv.1.2 bus2=p1rlv2616.1.2 switch=n enabled=y phases=2 Linecode=1P_OH_AL_4_Periwinkle_2

New Line.l(r:p1rlv2620-rdt1580lv) Units=km Length=0.001 bus1=rdt1580lv.1.2 bus2=p1rlv2620.1.2 switch=n enabled=y phases=2 Linecode=1P_OH_AL_4_Periwinkle_2

New Line.l(r:p1rlv2621-rdt1581lv) Units=km Length=0.0436699 bus1=rdt1581lv.1.2 bus2=p1rlv2621.1.2 switch=n enabled=y phases=2 Linecode=1P_OH_AL_4/0_Zuzara_2

New Line.l(r:p1rlv2622-rdt1582lv) Units=km Length=0.0185753 bus1=rdt1582lv.1.2 bus2=p1rlv2622.1.2 switch=n enabled=y phases=2 Linecode=1P_OH_AL_2/0_Rucina_2

New Line.l(r:p1rlv2623-rdt1582lv) Units=km Length=0.0185753 bus1=rdt1582lv.1.2 bus2=p1rlv2623.1.2 switch=n enabled=y phases=2 Linecode=1P_OH_AL_2/0_Rucina_2

New Line.l(r:p1rlv2625-rdt1583lv) Units=km Length=0.0405048 bus1=rdt1583lv.1.2 bus2=p1rlv2625.1.2 switch=n enabled=y phases=2 Linecode=1P_OH_AL_4/0_Zuzara_2

New Line.l(r:p1rlv2626-rdt1584lv) Units=km Length=0.001 bus1=rdt1584lv.1.2 bus2=p1rlv2626.1.2 switch=n enabled=y phases=2 Linecode=1P_OH_AL_4_Periwinkle_2

New Line.l(r:p1rlv2631-rdt1585lv) Units=km Length=0.0817179 bus1=rdt1585lv.1.2 bus2=p1rlv2631.1.2 switch=n enabled=y phases=2 Linecode=1P_OH_AL_4/0_Zuzara_2

New Line.l(r:p1rlv2627-rdm2620) Units=km Length=0.0824038 bus1=rdm2620.1.2 bus2=p1rlv2627.1.2 switch=n enabled=y phases=2 Linecode=1P_OH_AL_4/0_Zuzara_2

New Line.l(r:p1rlv2630-rdm2620) Units=km Length=0.034308 bus1=rdm2620.1.2 bus2=p1rlv2630.1.2 switch=n enabled=y phases=2 Linecode=1P_OH_AL_4/0_Zuzara_2

New Line.l(r:rdm2620-rdt1585lv) Units=km Length=0.0152631 bus1=rdt1585lv.1.2 bus2=rdm2620.1.2 switch=n enabled=y phases=2 Linecode=1P_OH_AL_2/0_Rucina_2

New Line.l(r:p1rlv2629-rdm2622) Units=km Length=0.051683700000000006 bus1=rdm2622.1.2 bus2=p1rlv2629.1.2 switch=n enabled=y phases=2 Linecode=1P_OH_AL_4/0_Zuzara_2

New Line.l(r:p1rlv2628-rdm2621) Units=km Length=0.0553301 bus1=rdm2621.1.2 bus2=p1rlv2628.1.2 switch=n enabled=y phases=2 Linecode=1P_OH_AL_4/0_Zuzara_2

New Line.l(r:rdm2621-rdm2622) Units=km Length=0.0186671 bus1=rdm2622.1.2 bus2=rdm2621.1.2 switch=n enabled=y phases=2 Linecode=1P_OH_AL_2/0_Rucina_2

New Line.l(r:rdm2622-rdt1585lv) Units=km Length=0.0152693 bus1=rdt1585lv.1.2 bus2=rdm2622.1.2 switch=n enabled=y phases=2 Linecode=1P_OH_AL_2/0_Rucina_2

New Line.l(r:p1rlv2633-rdt1586lv) Units=km Length=0.102592 bus1=rdt1586lv.1.2 bus2=p1rlv2633.1.2 switch=n enabled=y phases=2 Linecode=1P_OH_AL_4/0_Zuzara_2

New Line.l(r:p1rlv2632-rdm2625) Units=km Length=0.0664027 bus1=rdm2625.1.2 bus2=p1rlv2632.1.2 switch=n enabled=y phases=2 Linecode=1P_OH_AL_4/0_Zuzara_2

New Line.l(r:rdm2625-rdt1586lv) Units=km Length=0.0199245 bus1=rdt1586lv.1.2 bus2=rdm2625.1.2 switch=n enabled=y phases=2 Linecode=1P_OH_AL_2/0_Rucina_2

New Line.l(r:p1rlv2634-rdt1587lv) Units=km Length=0.0823065 bus1=rdt1587lv.1.2 bus2=p1rlv2634.1.2 switch=n enabled=y phases=2 Linecode=1P_OH_AL_4/0_Zuzara_2

New Line.l(r:p1rlv2635-rdt1587lv) Units=km Length=0.0483111 bus1=rdt1587lv.1.2 bus2=p1rlv2635.1.2 switch=n enabled=y phases=2 Linecode=1P_OH_AL_4/0_Zuzara_2

New Line.l(r:p1rlv2636-rdt1587lv) Units=km Length=0.023237 bus1=rdt1587lv.1.2 bus2=p1rlv2636.1.2 switch=n enabled=y phases=2 Linecode=1P_OH_AL_2/0_Rucina_2

New Line.l(r:p1rlv2637-rdt1588lv) Units=km Length=0.027731 bus1=rdt1588lv.1.2 bus2=p1rlv2637.1.2 switch=n enabled=y phases=2 Linecode=1P_UG_AL_1/0_Brenau_2

New Line.l(r:p1rlv2638-rdm2631) Units=km Length=0.0484284 bus1=rdm2631.1.2 bus2=p1rlv2638.1.2 switch=n enabled=y phases=2 Linecode=1P_UG_AL_1/0_Brenau_2

New Line.l(r:rdm2631-rdt1589lv) Units=km Length=0.00926264 bus1=rdt1589lv.1.2 bus2=rdm2631.1.2 switch=n enabled=y phases=2 Linecode=1P_UG_AL_1/0_Brenau_2

New Line.l(r:p1rlv2646-rdm2632) Units=km Length=0.0832252 bus1=rdm2632.1.2 bus2=p1rlv2646.1.2 switch=n enabled=y phases=2 Linecode=1P_UG_AL_1/0_Brenau_2

New Line.l(r:rdm2632-rdt1589lv) Units=km Length=0.00925283 bus1=rdt1589lv.1.2 bus2=rdm2632.1.2 switch=n enabled=y phases=2 Linecode=1P_UG_AL_1/0_Brenau_2

New Line.l(r:p1rlv2639-rdt1590lv) Units=km Length=0.0469407 bus1=rdt1590lv.1.2 bus2=p1rlv2639.1.2 switch=n enabled=y phases=2 Linecode=1P_UG_AL_1/0_Brenau_2

New Line.l(r:p1rlv2640-rdt1591lv) Units=km Length=0.0188887 bus1=rdt1591lv.1.2 bus2=p1rlv2640.1.2 switch=n enabled=y phases=2 Linecode=1P_UG_AL_1/0_Brenau_2

New Line.l(r:p1rlv2641-rdt1592lv) Units=km Length=0.0376508 bus1=rdt1592lv.1.2 bus2=p1rlv2641.1.2 switch=n enabled=y phases=2 Linecode=1P_UG_AL_1/0_Brenau_2

New Line.l(r:p1rlv2642-rdt1593lv) Units=km Length=0.0474089 bus1=rdt1593lv.1.2 bus2=p1rlv2642.1.2 switch=n enabled=y phases=2 Linecode=1P_OH_AL_4/0_Zuzara_2

New Line.l(r:p1rlv2643-rdt1594lv) Units=km Length=0.0439444 bus1=rdt1594lv.1.2 bus2=p1rlv2643.1.2 switch=n enabled=y phases=2 Linecode=1P_OH_AL_4/0_Zuzara_2

New Line.l(r:p1rlv2644-rdt1595lv) Units=km Length=0.0354985 bus1=rdt1595lv.1.2 bus2=p1rlv2644.1.2 switch=n enabled=y phases=2 Linecode=1P_OH_AL_4/0_Zuzara_2

New Line.l(r:p1rlv2645-rdm2639) Units=km Length=0.0423619 bus1=rdm2639.1.2 bus2=p1rlv2645.1.2 switch=n enabled=y phases=2 Linecode=1P_OH_AL_4/0_Zuzara_2

New Line.l(r:rdm2639-rdt1595lv) Units=km Length=0.035986 bus1=rdt1595lv.1.2 bus2=rdm2639.1.2 switch=n enabled=y phases=2 Linecode=1P_OH_AL_4/0_Zuzara_2

New Line.l(r:p1rlv2657-rdm2640) Units=km Length=0.0489359 bus1=rdm2640.1.2 bus2=p1rlv2657.1.2 switch=n enabled=y phases=2 Linecode=1P_OH_AL_4/0_Zuzara_2

New Line.l(r:rdm2640-rdt1595lv) Units=km Length=0.0183095 bus1=rdt1595lv.1.2 bus2=rdm2640.1.2 switch=n enabled=y phases=2 Linecode=1P_OH_AL_2/0_Rucina_2

New Line.l(r:p1rlv2647-rdt1596lv) Units=km Length=0.001 bus1=rdt1596lv.1.2 bus2=p1rlv2647.1.2 switch=n enabled=y phases=2 Linecode=1P_OH_AL_4_Periwinkle_2

New Line.l(r:p1rlv2648-rdt1597lv) Units=km Length=0.001 bus1=rdt1597lv.1.2 bus2=p1rlv2648.1.2 switch=n enabled=y phases=2 Linecode=1P_UG_AL_1/0_Brenau_2

New Line.l(r:p1rlv2649-rdt1598lv) Units=km Length=0.0678447 bus1=rdt1598lv.1.2 bus2=p1rlv2649.1.2 switch=n enabled=y phases=2 Linecode=1P_OH_AL_4/0_Zuzara_2

New Line.l(r:p1rlv2650-rdt1598lv) Units=km Length=0.0469978 bus1=rdt1598lv.1.2 bus2=p1rlv2650.1.2 switch=n enabled=y phases=2 Linecode=1P_OH_AL_4/0_Zuzara_2

New Line.l(r:p1rlv2651-rdt1598lv) Units=km Length=0.04703120000000001 bus1=rdt1598lv.1.2 bus2=p1rlv2651.1.2 switch=n enabled=y phases=2 Linecode=1P_OH_AL_4/0_Zuzara_2

New Line.l(r:p1rlv2652-rdt1598lv) Units=km Length=0.0196722 bus1=rdt1598lv.1.2 bus2=p1rlv2652.1.2 switch=n enabled=y phases=2 Linecode=1P_OH_AL_2/0_Rucina_2

New Line.l(r:p1rlv2653-rdt1598lv) Units=km Length=0.030685900000000002 bus1=rdt1598lv.1.2 bus2=p1rlv2653.1.2 switch=n enabled=y phases=2 Linecode=1P_OH_AL_4/0_Zuzara_2

New Line.l(r:p1rlv2654-rdt1598lv) Units=km Length=0.0522884 bus1=rdt1598lv.1.2 bus2=p1rlv2654.1.2 switch=n enabled=y phases=2 Linecode=1P_OH_AL_4/0_Zuzara_2

New Line.l(r:p1rlv2655-rdt1598lv) Units=km Length=0.068038 bus1=rdt1598lv.1.2 bus2=p1rlv2655.1.2 switch=n enabled=y phases=2 Linecode=1P_OH_AL_4/0_Zuzara_2

New Line.l(r:p1rlv2656-rdt1599lv) Units=km Length=0.0378916 bus1=rdt1599lv.1.2 bus2=p1rlv2656.1.2 switch=n enabled=y phases=2 Linecode=1P_OH_AL_4/0_Zuzara_2

New Line.l(r:p1rlv2658-rdt1600lv) Units=km Length=0.001 bus1=rdt1600lv.1.2 bus2=p1rlv2658.1.2 switch=n enabled=y phases=2 Linecode=1P_OH_AL_4_Periwinkle_2

New Line.l(r:p1rlv2659-rdm2652) Units=km Length=0.083841 bus1=rdm2652.1.2 bus2=p1rlv2659.1.2 switch=n enabled=y phases=2 Linecode=1P_OH_AL_4/0_Zuzara_2

New Line.l(r:rdm2652-rdt1601lv) Units=km Length=0.0167688 bus1=rdt1601lv.1.2 bus2=rdm2652.1.2 switch=n enabled=y phases=2 Linecode=1P_OH_AL_2/0_Rucina_2

New Line.l(r:p1rlv2660-rdm2653) Units=km Length=0.0749946 bus1=rdm2653.1.2 bus2=p1rlv2660.1.2 switch=n enabled=y phases=2 Linecode=1P_OH_AL_4/0_Zuzara_2

New Line.l(r:p1rlv2661-rdm2653) Units=km Length=0.115716 bus1=rdm2653.1.2 bus2=p1rlv2661.1.2 switch=n enabled=y phases=2 Linecode=1P_OH_AL_4/0_Zuzara_2

New Line.l(r:rdm2653-rdt1601lv) Units=km Length=0.0167786 bus1=rdt1601lv.1.2 bus2=rdm2653.1.2 switch=n enabled=y phases=2 Linecode=1P_OH_AL_2/0_Rucina_2

New Line.l(r:p1rlv2662-rdt1602lv) Units=km Length=0.0458139 bus1=rdt1602lv.1.2 bus2=p1rlv2662.1.2 switch=n enabled=y phases=2 Linecode=1P_OH_AL_4/0_Zuzara_2

New Line.l(r:p1rlv2663-rdt1603lv) Units=km Length=0.0729861 bus1=rdt1603lv.1.2 bus2=p1rlv2663.1.2 switch=n enabled=y phases=2 Linecode=1P_OH_AL_4/0_Zuzara_2

New Line.l(r:p1rlv2665-rdt1604lv) Units=km Length=0.071461 bus1=rdt1604lv.1.2 bus2=p1rlv2665.1.2 switch=n enabled=y phases=2 Linecode=1P_OH_AL_4/0_Zuzara_2

New Line.l(r:p1rlv2666-rdt1604lv) Units=km Length=0.0917176 bus1=rdt1604lv.1.2 bus2=p1rlv2666.1.2 switch=n enabled=y phases=2 Linecode=1P_OH_AL_4/0_Zuzara_2

New Line.l(r:p1rlv2664-rdm2657) Units=km Length=0.0318659 bus1=rdm2657.1.2 bus2=p1rlv2664.1.2 switch=n enabled=y phases=2 Linecode=1P_OH_AL_4/0_Zuzara_2

New Line.l(r:rdm2657-rdt1604lv) Units=km Length=0.0179873 bus1=rdt1604lv.1.2 bus2=rdm2657.1.2 switch=n enabled=y phases=2 Linecode=1P_OH_AL_2/0_Rucina_2

New Line.l(r:p1rlv2667-rdt1605lv) Units=km Length=0.0569905 bus1=rdt1605lv.1.2 bus2=p1rlv2667.1.2 switch=n enabled=y phases=2 Linecode=1P_OH_AL_4/0_Zuzara_2

New Line.l(r:p1rlv2668-rdm2661) Units=km Length=0.0617021 bus1=rdm2661.1.2 bus2=p1rlv2668.1.2 switch=n enabled=y phases=2 Linecode=1P_OH_AL_4/0_Zuzara_2

New Line.l(r:rdm2661-rdt1606lv) Units=km Length=0.0196857 bus1=rdt1606lv.1.2 bus2=rdm2661.1.2 switch=n enabled=y phases=2 Linecode=1P_OH_AL_2/0_Rucina_2

New Line.l(r:p1rlv2669-rdm2662) Units=km Length=0.0724921 bus1=rdm2662.1.2 bus2=p1rlv2669.1.2 switch=n enabled=y phases=2 Linecode=1P_OH_AL_4/0_Zuzara_2

New Line.l(r:rdm2662-rdt1606lv) Units=km Length=0.0196792 bus1=rdt1606lv.1.2 bus2=rdm2662.1.2 switch=n enabled=y phases=2 Linecode=1P_OH_AL_2/0_Rucina_2

New Line.l(r:p1rlv2670-rdt1607lv) Units=km Length=0.0362385 bus1=rdt1607lv.1.2 bus2=p1rlv2670.1.2 switch=n enabled=y phases=2 Linecode=1P_OH_AL_4/0_Zuzara_2

New Line.l(r:p1rlv2671-rdt1608lv) Units=km Length=0.0955623 bus1=rdt1608lv.1.2 bus2=p1rlv2671.1.2 switch=n enabled=y phases=2 Linecode=1P_OH_AL_4/0_Zuzara_2

New Line.l(r:p1rlv2673-rdt1609lv) Units=km Length=0.0409997 bus1=rdt1609lv.1.2 bus2=p1rlv2673.1.2 switch=n enabled=y phases=2 Linecode=1P_OH_AL_4/0_Zuzara_2

New Line.l(r:p1rlv2672-rdm2665) Units=km Length=0.0540438 bus1=rdm2665.1.2 bus2=p1rlv2672.1.2 switch=n enabled=y phases=2 Linecode=1P_OH_AL_4/0_Zuzara_2

New Line.l(r:rdm2665-rdt1609lv) Units=km Length=0.0198418 bus1=rdt1609lv.1.2 bus2=rdm2665.1.2 switch=n enabled=y phases=2 Linecode=1P_OH_AL_2/0_Rucina_2

New Line.l(r:p1rlv2674-rdm2667) Units=km Length=0.0801589 bus1=rdm2667.1.2 bus2=p1rlv2674.1.2 switch=n enabled=y phases=2 Linecode=1P_OH_AL_4/0_Zuzara_2

New Line.l(r:rdm2667-rdt1609lv) Units=km Length=0.0198557 bus1=rdt1609lv.1.2 bus2=rdm2667.1.2 switch=n enabled=y phases=2 Linecode=1P_OH_AL_2/0_Rucina_2

New Line.l(r:p1rlv2675-rdt1610lv) Units=km Length=0.0466018 bus1=rdt1610lv.1.2 bus2=p1rlv2675.1.2 switch=n enabled=y phases=2 Linecode=1P_OH_AL_4/0_Zuzara_2

New Line.l(r:p1rlv2676-rdt1611lv) Units=km Length=0.001 bus1=rdt1611lv.1.2 bus2=p1rlv2676.1.2 switch=n enabled=y phases=2 Linecode=1P_OH_AL_4_Periwinkle_2

New Line.l(r:p1rlv2677-rdt1612lv) Units=km Length=0.0573162 bus1=rdt1612lv.1.2 bus2=p1rlv2677.1.2 switch=n enabled=y phases=2 Linecode=1P_OH_AL_4/0_Zuzara_2

New Line.l(r:p1rlv2678-rdt1613lv) Units=km Length=0.0658365 bus1=rdt1613lv.1.2 bus2=p1rlv2678.1.2 switch=n enabled=y phases=2 Linecode=1P_OH_AL_4/0_Zuzara_2

New Line.l(r:p1rlv2679-rdm2672) Units=km Length=0.0634559 bus1=rdm2672.1.2 bus2=p1rlv2679.1.2 switch=n enabled=y phases=2 Linecode=1P_OH_AL_4/0_Zuzara_2

New Line.l(r:p1rlv2680-rdm2672) Units=km Length=0.0788077 bus1=rdm2672.1.2 bus2=p1rlv2680.1.2 switch=n enabled=y phases=2 Linecode=1P_OH_AL_4/0_Zuzara_2

New Line.l(r:rdm2672-rdt1614lv) Units=km Length=0.0193 bus1=rdt1614lv.1.2 bus2=rdm2672.1.2 switch=n enabled=y phases=2 Linecode=1P_OH_AL_2/0_Rucina_2

New Line.l(r:p1rlv2681-rdm2674) Units=km Length=0.0586351 bus1=rdm2674.1.2 bus2=p1rlv2681.1.2 switch=n enabled=y phases=2 Linecode=1P_OH_AL_4/0_Zuzara_2

New Line.l(r:p1rlv2682-rdm2674) Units=km Length=0.07648220000000001 bus1=rdm2674.1.2 bus2=p1rlv2682.1.2 switch=n enabled=y phases=2 Linecode=1P_OH_AL_4/0_Zuzara_2

New Line.l(r:rdm2674-rdt1614lv) Units=km Length=0.019310000000000004 bus1=rdt1614lv.1.2 bus2=rdm2674.1.2 switch=n enabled=y phases=2 Linecode=1P_OH_AL_2/0_Rucina_2

New Line.l(r:p1rlv2683-rdt1615lv) Units=km Length=0.0594406 bus1=rdt1615lv.1.2 bus2=p1rlv2683.1.2 switch=n enabled=y phases=2 Linecode=1P_OH_AL_4/0_Zuzara_2

New Line.l(r:p1rlv2684-rdt1616lv) Units=km Length=0.031055300000000004 bus1=rdt1616lv.1.2 bus2=p1rlv2684.1.2 switch=n enabled=y phases=2 Linecode=1P_OH_AL_4/0_Zuzara_2

New Line.l(r:p1rlv2685-rdt1617lv) Units=km Length=0.030900000000000004 bus1=rdt1617lv.1.2 bus2=p1rlv2685.1.2 switch=n enabled=y phases=2 Linecode=1P_OH_AL_4/0_Zuzara_2

New Line.l(r:p1rlv2686-rdt1618lv) Units=km Length=0.023390600000000004 bus1=rdt1618lv.1.2 bus2=p1rlv2686.1.2 switch=n enabled=y phases=2 Linecode=1P_OH_AL_2/0_Rucina_2

New Line.l(r:p1rlv2687-rdt1619lv) Units=km Length=0.0851665 bus1=rdt1619lv.1.2 bus2=p1rlv2687.1.2 switch=n enabled=y phases=2 Linecode=1P_OH_AL_4/0_Zuzara_2

New Line.l(r:p1rlv2688-rdt1619lv) Units=km Length=0.0801192 bus1=rdt1619lv.1.2 bus2=p1rlv2688.1.2 switch=n enabled=y phases=2 Linecode=1P_OH_AL_4/0_Zuzara_2

...