pydss-projects/GSO_Rural_Medium_sol_rhs0_rdt1528/DSSfiles/Loads.dss
New Load.load_p1rlv1359_1 conn=wye bus1=p1rlv1359.1 kV=0.12 Vminpu=0.8 Vmaxpu=1.2 model=1 kW=3.9060227283575606 kvar=0.8578020352767629 Phases=1 yearly=res_kw_278_pu

New Load.load_p1rlv1359_2 conn=wye bus1=p1rlv1359.2 kV=0.12 Vminpu=0.8 Vmaxpu=1.2 model=1 kW=3.9060227283575606 kvar=0.8578020352767629 Phases=1 yearly=res_kw_278_pu

New Load.load_p1rlv1360_1 conn=wye bus1=p1rlv1360.1 kV=0.12 Vminpu=0.8 Vmaxpu=1.2 model=1 kW=4.278318909946325 kvar=1.3258964507916957 Phases=1 yearly=res_kw_1246_pu

New Load.load_p1rlv1360_2 conn=wye bus1=p1rlv1360.2 kV=0.12 Vminpu=0.8 Vmaxpu=1.2 model=1 kW=4.278318909946325 kvar=1.3258964507916957 Phases=1 yearly=res_kw_1246_pu

New Load.load_p1rlv1361_1 conn=wye bus1=p1rlv1361.1 kV=0.12 Vminpu=0.8 Vmaxpu=1.2 model=1 kW=5.6593015111322105 kvar=1.2761251920573724 Phases=1 yearly=res_kw_324_pu

New Load.load_p1rlv1361_2 conn=wye bus1=p1rlv1361.2 kV=0.12 Vminpu=0.8 Vmaxpu=1.2 model=1 kW=5.6593015111322105 kvar=1.2761251920573724 Phases=1 yearly=res_kw_324_pu

New Load.load_p1rlv1362_1 conn=wye bus1=p1rlv1362.1 kV=0.12 Vminpu=0.8 Vmaxpu=1.2 model=1 kW=2.40000228705824 kvar=1.0173787262529668 Phases=1 yearly=res_kw_1205_pu

New Load.load_p1rlv1362_2 conn=wye bus1=p1rlv1362.2 kV=0.12 Vminpu=0.8 Vmaxpu=1.2 model=1 kW=2.40000228705824 kvar=1.0173787262529668 Phases=1 yearly=res_kw_1205_pu

New Load.load_p1rlv1363_1 conn=wye bus1=p1rlv1363.1 kV=0.12 Vminpu=0.8 Vmaxpu=1.2 model=1 kW=5.436729579526792 kvar=1.2488470964899614 Phases=1 yearly=res_kw_454_pu

New Load.load_p1rlv1363_2 conn=wye bus1=p1rlv1363.2 kV=0.12 Vminpu=0.8 Vmaxpu=1.2 model=1 kW=5.436729579526792 kvar=1.2488470964899614 Phases=1 yearly=res_kw_454_pu

New Load.load_p1rlv1364_1 conn=wye bus1=p1rlv1364.1 kV=0.12 Vminpu=0.8 Vmaxpu=1.2 model=1 kW=5.020630418662337 kvar=1.4660260271132275 Phases=1 yearly=res_kw_664_pu

New Load.load_p1rlv1364_2 conn=wye bus1=p1rlv1364.2 kV=0.12 Vminpu=0.8 Vmaxpu=1.2 model=1 kW=5.020630418662337 kvar=1.4660260271132275 Phases=1 yearly=res_kw_664_pu

New Load.load_p1rlv1365_1 conn=wye bus1=p1rlv1365.1 kV=0.12 Vminpu=0.8 Vmaxpu=1.2 model=1 kW=3.2243036213034695 kvar=0.7302943484265993 Phases=1 yearly=res_kw_35_pu

New Load.load_p1rlv1365_2 conn=wye bus1=p1rlv1365.2 kV=0.12 Vminpu=0.8 Vmaxpu=1.2 model=1 kW=3.2243036213034695 kvar=0.7302943484265993 Phases=1 yearly=res_kw_35_pu

New Load.load_p1rlv1367_1 conn=wye bus1=p1rlv1367.1 kV=0.12 Vminpu=0.8 Vmaxpu=1.2 model=1 kW=4.817618468644212 kvar=1.1350426223715635 Phases=1 yearly=res_kw_843_pu

New Load.load_p1rlv1367_2 conn=wye bus1=p1rlv1367.2 kV=0.12 Vminpu=0.8 Vmaxpu=1.2 model=1 kW=4.817618468644212 kvar=1.1350426223715635 Phases=1 yearly=res_kw_843_pu

New Load.load_p1rlv1368_1 conn=wye bus1=p1rlv1368.1 kV=0.12 Vminpu=0.8 Vmaxpu=1.2 model=1 kW=7.195337616187572 kvar=1.3536865792954904 Phases=1 yearly=res_kw_462_pu

New Load.load_p1rlv1368_2 conn=wye bus1=p1rlv1368.2 kV=0.12 Vminpu=0.8 Vmaxpu=1.2 model=1 kW=7.195337616187572 kvar=1.3536865792954904 Phases=1 yearly=res_kw_462_pu

New Load.load_p1rlv1372_1 conn=wye bus1=p1rlv1372.1 kV=0.12 Vminpu=0.8 Vmaxpu=1.2 model=1 kW=9.358521499301396 kvar=0.9436008203397507 Phases=1 yearly=com_kw_12824_pu

New Load.load_p1rlv1372_2 conn=wye bus1=p1rlv1372.2 kV=0.12 Vminpu=0.8 Vmaxpu=1.2 model=1 kW=9.358521499301396 kvar=0.9436008203397507 Phases=1 yearly=com_kw_12824_pu

New Load.load_p1rlv1373 conn=wye bus1=p1rlv1373.1.2.3 kV=0.48 Vminpu=0.8 Vmaxpu=1.2 model=1 kW=35.575751352084666 kvar=8.679058106481836 Phases=3 yearly=com_kw_13354_pu

New Load.load_p1rlv1861 conn=wye bus1=p1rlv1861.1.2.3 kV=0.48 Vminpu=0.8 Vmaxpu=1.2 model=1 kW=41.27726434904335 kvar=10.826959957077602 Phases=3 yearly=com_kw_13682_pu

New Load.load_p1rlv1862_1 conn=wye bus1=p1rlv1862.1 kV=0.12 Vminpu=0.8 Vmaxpu=1.2 model=1 kW=1.8801200674575587 kvar=0.53962653273889 Phases=1 yearly=com_kw_13578_pu

New Load.load_p1rlv1862_2 conn=wye bus1=p1rlv1862.2 kV=0.12 Vminpu=0.8 Vmaxpu=1.2 model=1 kW=1.8801200674575587 kvar=0.53962653273889 Phases=1 yearly=com_kw_13578_pu

New Load.load_p1rlv1863_1 conn=wye bus1=p1rlv1863.1 kV=0.12 Vminpu=0.8 Vmaxpu=1.2 model=1 kW=3.469755020859998 kvar=0.8941520384931253 Phases=1 yearly=res_kw_4_pu

New Load.load_p1rlv1863_2 conn=wye bus1=p1rlv1863.2 kV=0.12 Vminpu=0.8 Vmaxpu=1.2 model=1 kW=3.469755020859998 kvar=0.8941520384931253 Phases=1 yearly=res_kw_4_pu

New Load.load_p1rlv1864_1 conn=wye bus1=p1rlv1864.1 kV=0.12 Vminpu=0.8 Vmaxpu=1.2 model=1 kW=6.215760550825127 kvar=0.1559871213980079 Phases=1 yearly=com_kw_13807_pu

New Load.load_p1rlv1864_2 conn=wye bus1=p1rlv1864.2 kV=0.12 Vminpu=0.8 Vmaxpu=1.2 model=1 kW=6.215760550825127 kvar=0.1559871213980079 Phases=1 yearly=com_kw_13807_pu

New Load.load_p1rlv1865_1 conn=wye bus1=p1rlv1865.1 kV=0.12 Vminpu=0.8 Vmaxpu=1.2 model=1 kW=3.8748715750127736 kvar=1.5614372175332516 Phases=1 yearly=res_kw_517_pu

...